data_crystal

_audit_creation_method 'AiiDA-DDEC plugin'

_cell_length_a        22.70100
_cell_length_b        22.68630
_cell_length_c         7.83372

_cell_angle_alpha     89.41677
_cell_angle_beta     91.16956
_cell_angle_gamma     89.78926

_symmetry_space_group_name_Hall 'P 1'
_symmetry_space_group_name_H-M  'P 1'

loop_
_symmetry_equiv_pos_as_xyz
 'x,y,z'

loop_
_atom_site_label
_atom_site_type_symbol
_atom_site_fract_x
_atom_site_fract_y
_atom_site_fract_z
_atom_site_charge
Cu         Cu      0.10619   0.14418   0.50961   0.70317
Cu         Cu      0.99672   0.00873   0.00583   0.70253
H          H       0.33652   0.73382   0.37993   0.12688
H          H       0.40031   0.70740   0.49039   0.12204
H          H       0.99285   0.91090   0.49618   0.13875
H          H       0.21600   0.90658   0.49400   0.13846
H          H       0.86775   0.25380   0.51549   0.13850
H          H       0.87439   0.03055   0.51933   0.13809
H          H       0.21568   0.38182   0.50131   0.13667
H          H       0.99287   0.37862   0.49235   0.13822
H          H       0.34490   0.25194   0.51764   0.13768
H          H       0.33937   0.02912   0.50518   0.13847
H          H       0.51359   0.98829   0.52467   0.11344
H          H       0.70415   0.99034   0.53063   0.11128
H          H       0.51107   0.28570   0.52172   0.10801
H          H       0.70099   0.28586   0.52935   0.10906
H          H       0.68180   0.91215   0.33394   0.12600
H          H       0.61016   0.90324   0.24522   0.11427
H          H       0.64510   0.84381   0.35582   0.12055
H          H       0.52115   0.89851   0.42966   0.12894
H          H       0.52879   0.89622   0.65662   0.12179
H          H       0.55325   0.83632   0.53273   0.11872
H          H       0.86154   0.56111   0.38697   0.12445
H          H       0.33564   0.56709   0.33692   0.12455
H          H       0.40015   0.61072   0.35363   0.12018
H          H       0.69354   0.37923   0.43786   0.12520
H          H       0.69040   0.37448   0.66452   0.12453
H          H       0.66313   0.43795   0.55533   0.12258
H          H       0.59037   0.36825   0.80902   0.12718
H          H       0.52404   0.36642   0.68642   0.12479
H          H       0.56690   0.43170   0.69115   0.11950
H          H       0.33228   0.63916   0.77599   0.12936
H          H       0.39738   0.61643   0.67202   0.12068
H          H       0.33460   0.56985   0.67351   0.12463
H          H       0.95335   0.55045   0.49311   0.11393
H          H       0.95426   0.74106   0.49649   0.11056
H          H       0.25128   0.55045   0.49596   0.10760
H          H       0.24814   0.74087   0.48730   0.10969
H          H       0.80178   0.58937   0.50280   0.12055
H          H       0.86762   0.72846   0.34104   0.12383
H          H       0.80492   0.68222   0.33657   0.12012
H          H       0.86438   0.56102   0.61462   0.12516
H          H       0.33991   0.73408   0.60731   0.12676
H          H       0.80837   0.68515   0.65770   0.12068
H          H       0.87178   0.66053   0.77650   0.11533
H          H       0.87389   0.72719   0.65827   0.12336
H          H       0.69780   0.90133   0.65357   0.12513
H          H       0.65292   0.83771   0.65757   0.12007
H          H       0.63832   0.89791   0.79422   0.11432
H          H       0.57100   0.43556   0.37403   0.12052
H          H       0.53044   0.36930   0.34811   0.12515
H          H       0.60089   0.37624   0.25646   0.12718
H          H       0.33976   0.63483   0.22298   0.12944
H          H       0.86905   0.66315   0.22015   0.11417
H          H       0.23974   0.59125   0.88612   0.12528
H          H       0.30069   0.56235   0.00506   0.11996
H          H       0.88600   0.77167   0.00367   0.13662
H          H       0.10889   0.77353  -0.00072   0.13799
H          H       0.76370   0.12437   0.00024   0.13848
H          H       0.75764   0.90153   0.00603   0.13691
H          H       0.11058   0.24204   0.02220   0.13847
H          H       0.88747   0.24559   0.01428   0.13905
H          H       0.22983   0.12117   0.01479   0.13795
H          H       0.23522   0.89804  -0.00301   0.13857
H          H       0.40329   0.86616   0.99011   0.10907
H          H       0.59337   0.86862   0.00405   0.10659
H          H       0.39817   0.16153   0.01695   0.11169
H          H       0.58863   0.16529   0.01278   0.11354
H          H       0.59246   0.78074   0.92543   0.12532
H          H       0.53874   0.77593   0.75898   0.12593
H          H       0.54944   0.71620   0.90558   0.12102
H          H       0.42573   0.77267   0.83905   0.12613
H          H       0.40722   0.77459   0.05869   0.12574
H          H       0.44509   0.71311   0.97768   0.12239
H          H       0.76301   0.41821   0.89426   0.12642
H          H       0.22882   0.42592   0.84184   0.12432
H          H       0.29295   0.47017   0.83776   0.12018
H          H       0.57713   0.25867   0.92430   0.12624
H          H       0.57470   0.25382   0.15184   0.12434
H          H       0.54623   0.31681   0.04302   0.11871
H          H       0.47283   0.25190   0.29748   0.11389
H          H       0.40813   0.24283   0.17229   0.12520
H          H       0.44691   0.31030   0.16377   0.12069
H          H       0.23443   0.49168   0.28089   0.11436
H          H       0.29667   0.46852   0.16233   0.12008
H          H       0.23179   0.42523   0.16552   0.12440
H          H       0.85366   0.41190   0.01021   0.10999
H          H       0.85072   0.60228   0.00394   0.10767
H          H       0.14782   0.41231   0.00867   0.11046
H          H       0.14824   0.60275   0.00276   0.11332
H          H       0.70135   0.44532   0.00500   0.12297
H          H       0.76528   0.58400   0.83471   0.12491
H          H       0.70306   0.53669   0.83474   0.12096
H          H       0.76380   0.41862   0.12150   0.12654
H          H       0.23987   0.59191   0.11396   0.12430
H          H       0.70364   0.54009   0.15927   0.12109
H          H       0.76652   0.51596   0.27981   0.12850
H          H       0.76814   0.58421   0.16798   0.12377
H          H       0.56221   0.79161   0.23289   0.12326
H          H       0.52065   0.72562   0.21628   0.12112
H          H       0.48692   0.79156   0.28855   0.12704
H          H       0.45453   0.31223   0.86302   0.12037
H          H       0.41231   0.24668   0.84944   0.12621
H          H       0.48022   0.25118   0.74516   0.11329
H          H       0.22759   0.49301   0.72542   0.11531
H          H       0.76786   0.51591   0.72620   0.12895
C          C       0.29040   0.17370   0.51225  -0.03006
C          C       0.28983   0.11066   0.50969  -0.02873
C          C       0.22817   0.09355   0.50891   0.33822
C          C       0.22871   0.19283   0.51056   0.33680
C          C       0.34294   0.20406   0.51496  -0.15750
C          C       0.34068   0.07703   0.50843  -0.14714
C          C       0.15561   0.26617   0.50612   0.33833
C          C       0.13687   0.32795   0.50160  -0.02750
C          C       0.07382   0.32770   0.49940  -0.02687
C          C       0.16781   0.38024   0.49935  -0.15684
C          C       0.05622   0.26609   0.50375   0.33733
C          C       0.04082   0.37897   0.49474  -0.14900
C          C       0.98358   0.19373   0.50972   0.33773
C          C       0.92213   0.17513   0.51388  -0.02658
C          C       0.92301   0.11219   0.51541  -0.03084
C          C       0.86979   0.20591   0.51622  -0.15094
C          C       0.98437   0.09480   0.51277   0.33626
C          C       0.87272   0.07849   0.51836  -0.14899
C          C       0.05663   0.02227   0.50903   0.32701
C          C       0.07402   0.96082   0.50278  -0.03497
C          C       0.13690   0.96018   0.50206  -0.02813
C          C       0.04076   0.91020   0.49678  -0.15381
C          C       0.15541   0.02153   0.50738   0.33940
C          C       0.16814   0.90817   0.49562  -0.14910
C          C       0.13533   0.85509   0.49147   0.15760
C          C       0.07142   0.85582   0.49222   0.15646
C          C       0.81807   0.10872   0.52049   0.15530
C          C       0.81689   0.17268   0.51960   0.15706
C          C       0.13515   0.43376   0.49512   0.15402
C          C       0.07140   0.43344   0.49326   0.15569
C          C       0.39603   0.17064   0.51550   0.15235
C          C       0.39552   0.10684   0.51199   0.15695
C          C       0.60706   0.10549   0.52373  -0.00281
C          C       0.55368   0.07289   0.52246   0.00098
C          C       0.55570   0.01089   0.52517  -0.15011
C          C       0.60907   0.97934   0.52794   0.07113
C          C       0.66137   0.01213   0.52869  -0.14100
C          C       0.66130   0.07394   0.52621   0.00321
C          C       0.49743   0.10493   0.51818   0.14198
C          C       0.61174   0.91146   0.52359   0.25464
C          C       0.71666   0.10674   0.52444   0.13803
C          C       0.60664   0.16925   0.52289   0.00064
C          C       0.55286   0.20120   0.52165  -0.00148
C          C       0.55340   0.26310   0.52346  -0.14468
C          C       0.60599   0.29547   0.52836   0.05693
C          C       0.65869   0.26370   0.52762  -0.15481
C          C       0.65973   0.20178   0.52447   0.00285
C          C       0.49767   0.16862   0.51946   0.12824
C          C       0.60451   0.36310   0.53364   0.25084
C          C       0.71566   0.17037   0.52343   0.13634
C          C       0.63875   0.89186   0.35442  -0.43931
C          C       0.54992   0.88454   0.53694  -0.43366
C          C       0.66668   0.38975   0.54864  -0.43223
C          C       0.56926   0.38334   0.68923  -0.43230
C          C       0.06987   0.64482   0.48908  -0.00091
C          C       0.03777   0.59124   0.49067  -0.00064
C          C       0.97585   0.59264   0.49316  -0.15046
C          C       0.94420   0.64578   0.49570   0.07050
C          C       0.97635   0.69841   0.49427  -0.13857
C          C       0.03794   0.69885   0.49024  -0.00060
C          C       0.07016   0.53531   0.49057   0.13880
C          C       0.87666   0.64830   0.49836   0.25399
C          C       0.07009   0.75450   0.48869   0.13686
C          C       0.13352   0.64470   0.48788   0.00138
C          C       0.16617   0.59115   0.49008   0.00131
C          C       0.22807   0.59252   0.49242  -0.14790
C          C       0.25964   0.64570   0.49118   0.05773
C          C       0.22708   0.69800   0.48790  -0.15702
C          C       0.16532   0.69819   0.48657   0.00402
C          C       0.13395   0.53555   0.49128   0.13332
C          C       0.32728   0.64599   0.49752   0.25074
C          C       0.13359   0.75393   0.48696   0.13590
C          C       0.85332   0.68227   0.33906  -0.43408
C          C       0.85668   0.68200   0.65733  -0.43521
C          C       0.84998   0.58615   0.50073  -0.43574
C          C       0.35201   0.70915   0.49363  -0.43260
C          C       0.35184   0.61255   0.34356  -0.43585
C          C       0.34901   0.61590   0.66485  -0.43516
C          C       0.65227   0.88601   0.66633  -0.43918
C          C       0.57482   0.38733   0.36809  -0.43282
C          C       0.18029   0.03977   0.01183  -0.02959
C          C       0.18097   0.97682   0.00755  -0.02726
C          C       0.11933   0.95848   0.00809   0.33946
C          C       0.11894   0.05738   0.01319   0.33559
C          C       0.23074   0.07323   0.01132  -0.14927
C          C       0.23327   0.94590   0.00159  -0.15165
C          C       0.04700   0.13035   0.01242   0.33003
C          C       0.02966   0.19188   0.01511  -0.03592
C          C       0.96677   0.19254   0.01209  -0.02846
C          C       0.06268   0.24270   0.01915  -0.15382
C          C       0.94812   0.13132   0.00669   0.33989
C          C       0.93533   0.24439   0.01483  -0.14942
C          C       0.87497   0.05961   0.00134   0.33788
C          C       0.81321   0.04273   0.00127  -0.02789
C          C       0.81245   0.97966   0.00277  -0.02935
C          C       0.76242   0.07644   0.00160  -0.14687
C          C       0.87399   0.96032   0.00244   0.33692
C          C       0.75989   0.94940   0.00511  -0.15682
C          C       0.94681   0.88681   0.00380   0.33734
C          C       0.96519   0.82493   0.00249  -0.02965
C          C       0.02824   0.82498   0.00170  -0.02693
C          C       0.93391   0.77278   0.00261  -0.15461
C          C       0.04620   0.88651   0.00407   0.33847
C          C       0.06096   0.77358   0.00043  -0.14783
C          C       0.03012   0.71930   0.00094   0.15416
C          C       0.96636   0.71908   0.00227   0.15328
C          C       0.70696   0.98293   0.00485   0.15140
C          C       0.70755   0.04671   0.00293   0.15640
C          C       0.03174   0.29703   0.01819   0.15710
C          C       0.96783   0.29760   0.01716   0.15748
C          C       0.28520   0.04287   0.00571   0.15628
C          C       0.28633   0.97898   0.00030   0.15614
C          C       0.49658   0.98367   0.99523   0.00042
C          C       0.44378   0.95058   0.99240   0.00263
C          C       0.44545   0.88862   0.99246  -0.15393
C          C       0.49859   0.85735  -0.00212   0.05693
C          C       0.55065   0.89037  -0.00056  -0.14360
C          C       0.55050   0.95221  -0.00298  -0.00080
C          C       0.38759   0.98156   0.99481   0.13530
C          C       0.50121   0.78982   0.01232   0.25344
C          C       0.60547   0.98493   0.00045   0.13012
C          C       0.49601   0.04737  -0.00001  -0.00345
C          C       0.44158   0.07836   0.00431   0.00411
C          C       0.44105   0.14000   0.01335  -0.14205
C          C       0.49304   0.17315   0.01743   0.07056
C          C       0.54673   0.14226   0.01146  -0.14903
C          C       0.54922   0.08033   0.00379   0.00153
C          C       0.38650   0.04515   0.00141   0.13836
C          C       0.48922   0.24093   0.02305   0.25590
C          C       0.60565   0.04861   0.00161   0.14111
C          C       0.54819   0.76445   0.89309  -0.43342
C          C       0.44128   0.76133   0.96903  -0.43343
C          C       0.55073   0.26872   0.03616  -0.43240
C          C       0.45235   0.26223   0.17339  -0.43875
C          C       0.96834   0.50808   0.00931   0.00149
C          C       0.93673   0.45446   0.01152   0.00380
C          C       0.87495   0.45464   0.00983  -0.15746
C          C       0.84231   0.50689   0.00696   0.05928
C          C       0.87378   0.56014   0.00575  -0.14757
C          C       0.93563   0.56158   0.00677   0.00109
C          C       0.96876   0.39879   0.01441   0.13598
C          C       0.77463   0.50641   0.00403   0.24763
C          C       0.96769   0.61725   0.00477   0.13306
C          C       0.03196   0.50809   0.00851  -0.00208
C          C       0.06402   0.45418   0.00996   0.00125
C          C       0.12558   0.45484   0.00797  -0.14059
C          C       0.15766   0.50745   0.00550   0.07325
C          C       0.12590   0.56050   0.00461  -0.15025
C          C       0.06395   0.56169   0.00570  -0.00063
C          C       0.03226   0.39840   0.01382   0.13678
C          C       0.22517   0.50463   0.00339   0.25167
C          C       0.03144   0.61750   0.00388   0.13923
C          C       0.75146   0.53773   0.84013  -0.43486
C          C       0.75201   0.53872   0.16215  -0.43379
C          C       0.74971   0.44332   0.00637  -0.43227
C          C       0.25249   0.56643   0.00206  -0.43500
C          C       0.24463   0.47161   0.84266  -0.43429
C          C       0.24831   0.47065   0.16270  -0.43477
C          C       0.51873   0.77371   0.19875  -0.43334
C          C       0.45732   0.26391   0.86026  -0.44065
N          N       0.19313   0.14347   0.50935  -0.43247
N          N       0.21181   0.24909   0.50849  -0.38747
N          N       0.10602   0.23084   0.50728  -0.43493
N          N       0.00010   0.24968   0.50564  -0.38146
N          N       0.01940   0.14429   0.50989  -0.43297
N          N       0.00063   0.03869   0.51163  -0.40364
N          N       0.10609   0.05738   0.51086  -0.42984
N          N       0.21141   0.03759   0.50781  -0.38229
N          N       0.16479   0.48556   0.49375  -0.27270
N          N       0.04031   0.48477   0.49111  -0.28980
N          N       0.76494   0.20206   0.52119  -0.29060
N          N       0.76745   0.07715   0.52290  -0.29030
N          N       0.44792   0.19974   0.51885  -0.26686
N          N       0.44671   0.07533   0.51351  -0.29209
N          N       0.04008   0.80504   0.49001  -0.28959
N          N       0.16501   0.80338   0.48779  -0.28605
N          N       0.08368   0.00805   0.01068  -0.43252
N          N       0.10295   0.11359   0.01490  -0.40467
N          N       0.99740   0.09540   0.00713  -0.43132
N          N       0.89201   0.11548   0.00317  -0.38314
N          N       0.90977   0.00954   0.00177  -0.43292
N          N       0.89067   0.90401   0.00335  -0.38613
N          N       0.99656   0.92197   0.00508  -0.43420
N          N       0.10244   0.90262   0.00555  -0.38308
N          N       0.06267   0.34804   0.01694  -0.29016
N          N       0.93774   0.34913   0.01673  -0.28628
N          N       0.65635   0.07825   0.00292  -0.29166
N          N       0.65517   0.95378   0.00500  -0.26746
N          N       0.33571   0.07457   0.00608  -0.28956
N          N       0.33835   0.94975   0.99429  -0.29096
N          N       0.93679   0.66723   0.00352  -0.27186
N          N       0.06120   0.66802   0.00149  -0.28904

