data_crystal

_audit_creation_method 'AiiDA-DDEC plugin'

_cell_length_a        22.75225
_cell_length_b        22.74595
_cell_length_c         7.83128

_cell_angle_alpha     89.23913
_cell_angle_beta     90.85860
_cell_angle_gamma     89.77302

_symmetry_space_group_name_Hall 'P 1'
_symmetry_space_group_name_H-M  'P 1'

loop_
_symmetry_equiv_pos_as_xyz
 'x,y,z'

loop_
_atom_site_label
_atom_site_type_symbol
_atom_site_fract_x
_atom_site_fract_y
_atom_site_fract_z
_atom_site_charge
Zn         Zn      0.10631   0.14485   0.50427   0.73461
Zn         Zn      0.99684   0.00770   0.00373   0.73446
H          H       0.33459   0.73490   0.37984   0.12717
H          H       0.39883   0.70845   0.48706   0.12251
H          H       0.99280   0.91139   0.50115   0.13684
H          H       0.21537   0.90605   0.49440   0.13898
H          H       0.86659   0.25406   0.51231   0.13882
H          H       0.87332   0.03146   0.51966   0.13594
H          H       0.21509   0.38271   0.49831   0.13627
H          H       0.99277   0.38041   0.49135   0.13874
H          H       0.34613   0.25216   0.51003   0.13738
H          H       0.33982   0.02996   0.50032   0.13805
H          H       0.51341   0.98899   0.52143   0.11303
H          H       0.70360   0.99073   0.52523   0.11177
H          H       0.51153   0.28584   0.51265   0.10788
H          H       0.70096   0.28498   0.52446   0.10841
H          H       0.68091   0.91271   0.33116   0.12644
H          H       0.60942   0.90251   0.24490   0.11435
H          H       0.64513   0.84418   0.35818   0.12088
H          H       0.52094   0.89877   0.43060   0.12856
H          H       0.52855   0.89757   0.65747   0.12093
H          H       0.55300   0.83712   0.53653   0.11823
H          H       0.86241   0.56184   0.39411   0.12423
H          H       0.33509   0.56808   0.33907   0.12488
H          H       0.39925   0.61216   0.35305   0.12040
H          H       0.69486   0.37776   0.43072   0.12560
H          H       0.69056   0.37324   0.65769   0.12477
H          H       0.66456   0.43682   0.54654   0.12244
H          H       0.59131   0.36843   0.80065   0.12755
H          H       0.52496   0.36691   0.67888   0.12511
H          H       0.56829   0.43178   0.68141   0.12015
H          H       0.33145   0.64059   0.77624   0.12914
H          H       0.39616   0.61699   0.67184   0.12132
H          H       0.33283   0.57137   0.67519   0.12345
H          H       0.95361   0.55124   0.49714   0.11313
H          H       0.95409   0.74109   0.50217   0.10986
H          H       0.25041   0.55132   0.49774   0.10763
H          H       0.24736   0.74101   0.48792   0.10875
H          H       0.80227   0.58987   0.50970   0.12066
H          H       0.86800   0.72874   0.34383   0.12512
H          H       0.80505   0.68303   0.34225   0.11983
H          H       0.86520   0.56238   0.62156   0.12506
H          H       0.33870   0.73459   0.60684   0.12701
H          H       0.80870   0.68510   0.66290   0.12035
H          H       0.87248   0.66094   0.78034   0.11570
H          H       0.87390   0.72748   0.66164   0.12283
H          H       0.69739   0.90309   0.64978   0.12510
H          H       0.65314   0.83936   0.65853   0.11995
H          H       0.63847   0.89972   0.79319   0.11421
H          H       0.57354   0.43484   0.36318   0.12052
H          H       0.53178   0.36944   0.34081   0.12516
H          H       0.60230   0.37452   0.24814   0.12713
H          H       0.33856   0.63540   0.22321   0.12928
H          H       0.86877   0.66342   0.22402   0.11459
H          H       0.23903   0.59067   0.88623   0.12508
H          H       0.30037   0.56166   0.00130   0.12040
H          H       0.88671   0.77016   0.00146   0.13662
H          H       0.10889   0.77227  -0.00078   0.13853
H          H       0.76311   0.12406   0.00195   0.13870
H          H       0.75680   0.90180   0.00411   0.13713
H          H       0.11063   0.24261   0.01984   0.13764
H          H       0.88777   0.24603   0.01424   0.13876
H          H       0.23012   0.12002   0.01122   0.13643
H          H       0.23567   0.89755   0.99524   0.13901
H          H       0.40392   0.86665   0.99464   0.10829
H          H       0.59344   0.86871   0.00397   0.10730
H          H       0.39808   0.16065   0.01047   0.11103
H          H       0.58795   0.16520   0.00846   0.11408
H          H       0.59251   0.78083   0.92909   0.12566
H          H       0.53932   0.77624   0.76247   0.12634
H          H       0.54958   0.71671   0.90949   0.12116
H          H       0.42682   0.77426   0.84183   0.12693
H          H       0.40737   0.77569   0.06099   0.12604
H          H       0.44520   0.71415   0.98003   0.12300
H          H       0.76299   0.41782   0.90105   0.12644
H          H       0.22823   0.42562   0.84527   0.12401
H          H       0.29206   0.47000   0.83708   0.12037
H          H       0.57680   0.25798   0.91561   0.12586
H          H       0.57427   0.25347   0.14304   0.12437
H          H       0.54574   0.31621   0.03312   0.11979
H          H       0.47250   0.25129   0.28986   0.11312
H          H       0.40815   0.24186   0.16592   0.12449
H          H       0.44628   0.30939   0.15593   0.12067
H          H       0.23449   0.49125   0.28249   0.11452
H          H       0.29627   0.46783   0.16230   0.12093
H          H       0.23132   0.42502   0.16797   0.12410
H          H       0.85432   0.41132   0.01671   0.10918
H          H       0.85086   0.60119   0.01117   0.10757
H          H       0.14792   0.41213   0.00965   0.11076
H          H       0.14791   0.60223   0.00699   0.11346
H          H       0.70216   0.44459   0.01594   0.12277
H          H       0.76605   0.58382   0.84397   0.12461
H          H       0.70352   0.53733   0.84618   0.12009
H          H       0.76516   0.41779   0.12802   0.12685
H          H       0.24054   0.59133   0.11427   0.12437
H          H       0.70491   0.53886   0.17122   0.12137
H          H       0.76845   0.51484   0.28813   0.13023
H          H       0.76923   0.58295   0.17570   0.12455
H          H       0.56210   0.79181   0.23528   0.12450
H          H       0.52057   0.72602   0.21925   0.12126
H          H       0.48699   0.79184   0.29238   0.12697
H          H       0.45337   0.31133   0.85732   0.12030
H          H       0.41226   0.24541   0.84320   0.12608
H          H       0.47989   0.25142   0.73734   0.11253
H          H       0.22638   0.49230   0.72717   0.11521
H          H       0.76731   0.51637   0.73321   0.12958
C          C       0.29099   0.17452   0.50323  -0.03275
C          C       0.29034   0.11138   0.50185  -0.03258
C          C       0.22876   0.09412   0.50235   0.33595
C          C       0.22928   0.19379   0.50203   0.33548
C          C       0.34363   0.20443   0.50774  -0.15670
C          C       0.34104   0.07777   0.50257  -0.14547
C          C       0.15536   0.26765   0.49994   0.33437
C          C       0.13648   0.32937   0.49705  -0.03072
C          C       0.07336   0.32921   0.49580  -0.02836
C          C       0.16731   0.38146   0.49676  -0.15511
C          C       0.05567   0.26766   0.49933   0.33668
C          C       0.04060   0.38043   0.49306  -0.14963
C          C       0.98266   0.19455   0.50742   0.33593
C          C       0.92128   0.17577   0.51184  -0.02876
C          C       0.92224   0.11276   0.51459  -0.03408
C          C       0.86891   0.20629   0.51370  -0.15086
C          C       0.98359   0.09538   0.51303   0.33198
C          C       0.87201   0.07926   0.51835  -0.15169
C          C       0.05655   0.02223   0.51161   0.32827
C          C       0.07387   0.96084   0.50517  -0.04020
C          C       0.13684   0.96003   0.50260  -0.03084
C          C       0.04060   0.91039   0.50044  -0.15719
C          C       0.15560   0.02131   0.50670   0.33608
C          C       0.16760   0.90799   0.49634  -0.14816
C          C       0.13469   0.85515   0.49295   0.15776
C          C       0.07097   0.85600   0.49523   0.15719
C          C       0.81744   0.10929   0.51886   0.15730
C          C       0.81621   0.17301   0.51731   0.15642
C          C       0.13476   0.43485   0.49492   0.15458
C          C       0.07117   0.43465   0.49295   0.15464
C          C       0.39649   0.17090   0.50926   0.15241
C          C       0.39583   0.10734   0.50671   0.15697
C          C       0.60688   0.10571   0.51969  -0.00362
C          C       0.55357   0.07333   0.51873   0.00157
C          C       0.55546   0.01149   0.52205  -0.15004
C          C       0.60869   0.98000   0.52470   0.07113
C          C       0.66096   0.01259   0.52428  -0.14124
C          C       0.66102   0.07423   0.52208   0.00331
C          C       0.49753   0.10537   0.51405   0.14191
C          C       0.61131   0.91224   0.52253   0.25463
C          C       0.71627   0.10697   0.52132   0.13868
C          C       0.60651   0.16928   0.51859   0.00129
C          C       0.55297   0.20138   0.51598  -0.00190
C          C       0.55369   0.26316   0.51616  -0.14520
C          C       0.60624   0.29529   0.52171   0.05766
C          C       0.65860   0.26330   0.52234  -0.15534
C          C       0.65945   0.20162   0.52028   0.00314
C          C       0.49792   0.16888   0.51418   0.12939
C          C       0.60540   0.36272   0.52574   0.25057
C          C       0.71524   0.17038   0.52047   0.13518
C          C       0.63826   0.89204   0.35380  -0.44045
C          C       0.54967   0.88529   0.53812  -0.43199
C          C       0.66769   0.38869   0.54082  -0.43127
C          C       0.57020   0.38350   0.68102  -0.43344
C          C       0.06957   0.64534   0.49050  -0.00034
C          C       0.03763   0.59191   0.49223  -0.00144
C          C       0.97588   0.59335   0.49554  -0.15051
C          C       0.94427   0.64632   0.49851   0.07136
C          C       0.97637   0.69876   0.49789  -0.13829
C          C       0.03778   0.69928   0.49284   0.00057
C          C       0.06996   0.53615   0.49202   0.13890
C          C       0.87685   0.64893   0.50239   0.25224
C          C       0.06971   0.75485   0.49163   0.13687
C          C       0.13301   0.64513   0.48896   0.00081
C          C       0.16562   0.59176   0.49131   0.00281
C          C       0.22736   0.59328   0.49369  -0.14913
C          C       0.25881   0.64632   0.49211   0.05852
C          C       0.22621   0.69836   0.48855  -0.15489
C          C       0.16462   0.69853   0.48786   0.00247
C          C       0.13359   0.53629   0.49267   0.13286
C          C       0.32630   0.64692   0.49767   0.24792
C          C       0.13300   0.75419   0.48880   0.13671
C          C       0.85338   0.68277   0.34309  -0.43516
C          C       0.85694   0.68236   0.66161  -0.43415
C          C       0.85042   0.58695   0.50710  -0.43548
C          C       0.35065   0.71004   0.49249  -0.43243
C          C       0.35102   0.61351   0.34402  -0.43524
C          C       0.34790   0.61705   0.66528  -0.43336
C          C       0.65211   0.88756   0.66511  -0.43898
C          C       0.57639   0.38666   0.35942  -0.43317
C          C       0.18095   0.03897   0.00824  -0.03364
C          C       0.18173   0.97601   0.00486  -0.02994
C          C       0.12020   0.95757   0.00643   0.33611
C          C       0.11974   0.05678   0.01028   0.33285
C          C       0.23127   0.07226   0.00816  -0.15177
C          C       0.23399   0.94530  -0.00059  -0.15193
C          C       0.04729   0.13056   0.00812   0.32694
C          C       0.02993   0.19211   0.01225  -0.03894
C          C       0.96690   0.19277   0.00998  -0.03039
C          C       0.06276   0.24290   0.01746  -0.15775
C          C       0.94823   0.13158   0.00366   0.33601
C          C       0.93559   0.24455   0.01407  -0.14956
C          C       0.87447   0.05945  -0.00007   0.33598
C          C       0.81278   0.04254   0.00106  -0.03037
C          C       0.81208   0.97936   0.00129  -0.03228
C          C       0.76209   0.07622   0.00157  -0.14752
C          C       0.87367   0.95987   0.00068   0.33493
C          C       0.75948   0.94955   0.00318  -0.15690
C          C       0.94693   0.88541   0.00238   0.33679
C          C       0.96543   0.82359   0.00195  -0.02963
C          C       0.02853   0.82356   0.00175  -0.02870
C          C       0.93448   0.77152   0.00203  -0.15724
C          C       0.04658   0.88497   0.00313   0.33595
C          C       0.06108   0.77228   0.00066  -0.14928
C          C       0.03040   0.71814   0.00307   0.15533
C          C       0.96684   0.71802   0.00433   0.15460
C          C       0.70674   0.98317   0.00353   0.15290
C          C       0.70726   0.04675   0.00209   0.15672
C          C       0.03182   0.29709   0.01754   0.15759
C          C       0.96805   0.29762   0.01688   0.15876
C          C       0.28565   0.04205   0.00377   0.15619
C          C       0.28692   0.97837  -0.00090   0.15755
C          C       0.49681   0.98363  -0.00399   0.00118
C          C       0.44420   0.95057   0.99429   0.00317
C          C       0.44605   0.88884   0.99555  -0.15477
C          C       0.49901   0.85761   0.00056   0.05722
C          C       0.55091   0.89058   0.00096  -0.14408
C          C       0.55066   0.95229  -0.00188   0.00007
C          C       0.38805   0.98132   0.99526   0.13527
C          C       0.50141   0.79028   0.01575   0.25196
C          C       0.60543   0.98508   0.00095   0.12940
C          C       0.49609   0.04715  -0.00087  -0.00397
C          C       0.44170   0.07798   0.00206   0.00400
C          C       0.44101   0.13950   0.00819  -0.14132
C          C       0.49284   0.17266   0.01166   0.07068
C          C       0.54641   0.14185   0.00733  -0.15005
C          C       0.54914   0.08008   0.00133   0.00129
C          C       0.38680   0.04471  -0.00003   0.13809
C          C       0.48903   0.24030   0.01547   0.25562
C          C       0.60555   0.04858   0.00011   0.14242
C          C       0.54837   0.76482   0.89675  -0.43462
C          C       0.44161   0.76227   0.97193  -0.43450
C          C       0.55033   0.26821   0.02742  -0.43210
C          C       0.45211   0.26150   0.16593  -0.43790
C          C       0.96849   0.50763   0.01223   0.00211
C          C       0.93700   0.45411   0.01452   0.00337
C          C       0.87535   0.45407   0.01471  -0.15627
C          C       0.84265   0.50609   0.01228   0.05995
C          C       0.87398   0.55925   0.01160  -0.14941
C          C       0.93571   0.56095   0.01137   0.00233
C          C       0.96898   0.39859   0.01550   0.13633
C          C       0.77515   0.50570   0.01137   0.24986
C          C       0.96771   0.61653   0.00918   0.13215
C          C       0.03201   0.50766   0.01100  -0.00282
C          C       0.06408   0.45387   0.01189   0.00097
C          C       0.12555   0.45451   0.01017  -0.14029
C          C       0.15745   0.50710   0.00840   0.07220
C          C       0.12572   0.56001   0.00814  -0.14978
C          C       0.06387   0.56113   0.00884  -0.00046
C          C       0.03234   0.39824   0.01451   0.13740
C          C       0.22483   0.50427   0.00506   0.25278
C          C       0.03137   0.61672   0.00758   0.14020
C          C       0.75180   0.53778   0.84891  -0.43428
C          C       0.75319   0.53756   0.17120  -0.43780
C          C       0.75038   0.44272   0.01408  -0.43295
C          C       0.25229   0.56585   0.00170  -0.43544
C          C       0.24388   0.47122   0.84416  -0.43402
C          C       0.24805   0.47023   0.16401  -0.43600
C          C       0.51869   0.77402   0.20207  -0.43347
C          C       0.45693   0.26320   0.85335  -0.44037
N          N       0.19432   0.14422   0.50243  -0.42316
N          N       0.21150   0.24992   0.50077  -0.39361
N          N       0.10563   0.23294   0.50132  -0.42465
N          N      -0.00031   0.25045   0.50185  -0.38761
N          N       0.01804   0.14501   0.50923  -0.42551
N          N       0.00060   0.03934   0.51421  -0.40643
N          N       0.10618   0.05666   0.51251  -0.42460
N          N       0.21146   0.03818   0.50333  -0.38645
N          N       0.16436   0.48644   0.49498  -0.27218
N          N       0.04014   0.48580   0.49194  -0.28877
N          N       0.76432   0.20212   0.51896  -0.28929
N          N       0.76705   0.07762   0.52100  -0.29072
N          N       0.44826   0.19987   0.51305  -0.26743
N          N       0.44689   0.07589   0.51010  -0.29232
N          N       0.03977   0.80532   0.49397  -0.29093
N          N       0.16426   0.80354   0.48902  -0.28619
N          N       0.08509   0.00729   0.00981  -0.42691
N          N       0.10315   0.11300   0.01054  -0.40593
N          N       0.99761   0.09614   0.00249  -0.42443
N          N       0.89219   0.11518   0.00127  -0.38745
N          N       0.90880   0.00926  -0.00047  -0.42216
N          N       0.89097   0.90360   0.00149  -0.39498
N          N       0.99682   0.91987   0.00361  -0.42437
N          N       0.10268   0.90182   0.00380  -0.38767
N          N       0.06265   0.34798   0.01667  -0.29084
N          N       0.93805   0.34904   0.01716  -0.28726
N          N       0.65612   0.07820   0.00130  -0.29267
N          N       0.65508   0.95411   0.00478  -0.26855
N          N       0.33594   0.07380   0.00369  -0.28873
N          N       0.33898   0.94947   0.99437  -0.29184
N          N       0.93706   0.66649   0.00738  -0.27273
N          N       0.06130   0.66696   0.00425  -0.28888

