data_crystal

_audit_creation_method 'AiiDA-DDEC plugin'

_cell_length_a        46.52827
_cell_length_b        46.60632
_cell_length_c         8.17910

_cell_angle_alpha     74.26257
_cell_angle_beta     124.98261
_cell_angle_gamma     120.23017

_symmetry_space_group_name_Hall 'P 1'
_symmetry_space_group_name_H-M  'P 1'

loop_
_symmetry_equiv_pos_as_xyz
 'x,y,z'

loop_
_atom_site_label
_atom_site_type_symbol
_atom_site_fract_x
_atom_site_fract_y
_atom_site_fract_z
_atom_site_charge
B          B       0.80977   0.40244   0.22261   0.57474
B          B       0.60105   0.40282   0.27877   0.56995
B          B       0.59808   0.18845   0.26390   0.58213
B          B       0.19649   0.59390   0.27096   0.57114
B          B       0.40763   0.59208   0.24747   0.57903
B          B       0.40772   0.80717   0.25184   0.58336
B          B       0.80262   0.40644   0.71787   0.57144
B          B       0.59347   0.40667   0.77314   0.57789
B          B       0.59261   0.19297   0.75508   0.58266
B          B       0.18867   0.59668   0.76289   0.57908
B          B       0.40171   0.59778   0.74514   0.57100
B          B       0.40405   0.81189   0.76041   0.58720
H          H       0.91592   0.50158   0.24570   0.11837
H          H       0.85323   0.46979   0.23671   0.10982
H          H       0.91222   0.40995   0.19514   0.11661
H          H       0.84966   0.37815   0.18814   0.11227
H          H       0.73237   0.30872   0.25576   0.13433
H          H       0.69305   0.26831   0.26910   0.13498
H          H       0.58406   0.26897   0.25230   0.13592
H          H       0.58567   0.30915   0.26585   0.13506
H          H       0.69381   0.41683   0.26450   0.13730
H          H       0.52890   0.14558   0.25114   0.10972
H          H       0.49736   0.08397   0.24441   0.11814
H          H       0.59214   0.08419   0.26540   0.11689
H          H       0.62381   0.14584   0.27149   0.10862
H          H       0.49963   0.40811   0.25331   0.11899
H          H       0.53345   0.37751   0.28369   0.11056
H          H       0.62608   0.47027   0.27923   0.10914
H          H       0.59191   0.50079   0.24546   0.11769
H          H       0.50422   0.58628   0.23279   0.11594
H          H       0.47486   0.61704   0.24550   0.11093
H          H       0.37963   0.52447   0.22117   0.10962
H          H       0.40917   0.49378   0.20964   0.11663
H          H       0.47690   0.85037   0.27408   0.10963
H          H       0.50776   0.91202   0.27531   0.12158
H          H       0.41094   0.91099   0.23978   0.12205
H          H       0.37991   0.84942   0.23520   0.10902
H          H       0.31502   0.72630   0.25440   0.13566
H          H       0.42421   0.72780   0.26092   0.13458
H          H       0.42638   0.68636   0.28547   0.13524
H          H       0.31512   0.57910   0.25865   0.13599
H          H       0.27479   0.68701   0.24554   0.13569
H          H       0.27741   0.57910   0.28569   0.13602
H          H       0.14964   0.52664   0.24000   0.10936
H          H       0.08524   0.49706   0.21354   0.11694
H          H       0.09380   0.59032   0.27635   0.11888
H          H       0.15748   0.62002   0.29546   0.11255
H          H       0.49284   0.08827   0.73602   0.12102
H          H       0.52366   0.14988   0.73859   0.10884
H          H       0.58858   0.08940   0.76194   0.12176
H          H       0.61981   0.15099   0.76807   0.10920
H          H       0.84211   0.38086   0.69399   0.11325
H          H       0.90548   0.41126   0.70873   0.11848
H          H       0.91038   0.50436   0.74486   0.12023
H          H       0.84647   0.47404   0.72471   0.10881
H          H       0.72610   0.42113   0.74585   0.13780
H          H       0.72551   0.31300   0.75178   0.13546
H          H       0.68599   0.27338   0.75415   0.13596
H          H       0.57755   0.27275   0.74973   0.13611
H          H       0.57806   0.31311   0.75434   0.13538
H          H       0.68751   0.42114   0.76868   0.13620
H          H       0.61702   0.47345   0.75295   0.10845
H          H       0.58500   0.50514   0.73052   0.11861
H          H       0.49614   0.41397   0.78052   0.11492
H          H       0.52816   0.38245   0.80197   0.11046
H          H       0.49978   0.59362   0.73494   0.11699
H          H       0.46880   0.62368   0.73759   0.11075
H          H       0.37504   0.53040   0.72070   0.10761
H          H       0.40629   0.50060   0.71832   0.11591
H          H       0.27030   0.58366   0.77425   0.13599
H          H       0.26706   0.69080   0.74421   0.13493
H          H       0.30844   0.73169   0.75020   0.13413
H          H       0.41819   0.73157   0.77099   0.13644
H          H       0.41917   0.69139   0.78128   0.13584
H          H       0.30821   0.58362   0.75223   0.13643
H          H       0.14421   0.52923   0.73774   0.11145
H          H       0.08083   0.49760   0.72249   0.11751
H          H       0.08499   0.58913   0.77702   0.11536
H          H       0.14807   0.62087   0.78892   0.11170
H          H       0.37882   0.85511   0.74999   0.10864
H          H       0.40965   0.91664   0.74328   0.11901
H          H       0.47371   0.85426   0.77715   0.11010
H          H       0.50490   0.91585   0.77373   0.12147
H          H       0.73134   0.41648   0.23680   0.13659
C          C       0.98486   0.49161   0.23037  -0.03750
C          C       0.50777   0.48897   0.21476  -0.02852
C          C       0.51059   0.01450   0.26014  -0.03012
C          C       0.01855   0.50873   0.23214  -0.03382
C          C       0.49066   0.50551   0.21060  -0.04016
C          C       0.49429   0.98107   0.26092  -0.02945
C          C       0.95407   0.47586   0.22805  -0.06856
C          C       0.52392   0.47373   0.22482  -0.07705
C          C       0.52547   0.04494   0.25753  -0.07701
C          C       0.04938   0.52453   0.23442  -0.07279
C          C       0.47559   0.52052   0.21416  -0.06912
C          C       0.47888   0.95056   0.26036  -0.07952
C          C       0.91847   0.45788   0.22289   0.12916
C          C       0.54324   0.45645   0.24410   0.13204
C          C       0.54281   0.07993   0.25618   0.12624
C          C       0.08526   0.54169   0.24315   0.12906
C          C       0.45876   0.53788   0.22024   0.13128
C          C       0.46138   0.91559   0.25820   0.12732
C          C       0.90113   0.47464   0.23197  -0.13112
C          C       0.52711   0.42136   0.25702  -0.13653
C          C       0.57876   0.09788   0.26389  -0.13052
C          C       0.10158   0.52391   0.23406  -0.13315
C          C       0.47709   0.57292   0.23105  -0.12662
C          C       0.42495   0.89745   0.24588  -0.13667
C          C       0.47999   0.89816   0.26837  -0.13288
C          C       0.42320   0.52071   0.21584  -0.13162
C          C       0.10605   0.57671   0.26593  -0.13318
C          C       0.52491   0.09770   0.24953  -0.13054
C          C       0.57950   0.47382   0.25482  -0.13413
C          C       0.89929   0.42278   0.20636  -0.12747
C          C       0.86601   0.45673   0.22621  -0.04500
C          C       0.54634   0.40449   0.27485  -0.05852
C          C       0.59627   0.13239   0.26711  -0.04908
C          C       0.13756   0.54062   0.24881  -0.04762
C          C       0.46038   0.59000   0.23694  -0.05927
C          C       0.40784   0.86292   0.24381  -0.04743
C          C       0.46252   0.86364   0.26688  -0.05239
C          C       0.40672   0.53800   0.22158  -0.04839
C          C       0.14178   0.59309   0.27817  -0.06230
C          C       0.54275   0.13223   0.25321  -0.04972
C          C       0.59841   0.45658   0.27348  -0.04534
C          C       0.86418   0.40517   0.20133  -0.06354
C          C       0.84696   0.42170   0.21260  -0.22292
C          C       0.58203   0.42159   0.28051  -0.22660
C          C       0.57875   0.15032   0.26224  -0.23703
C          C       0.15829   0.57551   0.26985  -0.22490
C          C       0.42499   0.57297   0.23318  -0.22486
C          C       0.42617   0.84528   0.25410  -0.23684
C          C       0.75934   0.39156   0.23881   0.17766
C          C       0.61050   0.36183   0.26364   0.18063
C          C       0.63985   0.24058   0.26616   0.17345
C          C       0.24837   0.60421   0.26989   0.16820
C          C       0.39942   0.63352   0.26900   0.17139
C          C       0.36775   0.75466   0.25441   0.17277
C          C       0.39864   0.75537   0.25883   0.17184
C          C       0.36808   0.60350   0.25890   0.17555
C          C       0.24757   0.63439   0.25827   0.17974
C          C       0.60906   0.24065   0.25833   0.17417
C          C       0.64095   0.39202   0.26538   0.17112
C          C       0.75998   0.36146   0.24700   0.17641
C          C       0.73097   0.39272   0.24438  -0.23291
C          C       0.60914   0.33186   0.26109  -0.22953
C          C       0.67022   0.26951   0.26700  -0.23688
C          C       0.27759   0.60294   0.27353  -0.21830
C          C       0.40165   0.66365   0.27789  -0.21736
C          C       0.33809   0.72550   0.25606  -0.23349
C          C       0.40055   0.72654   0.26371  -0.23344
C          C       0.33863   0.60275   0.26344  -0.23163
C          C       0.27624   0.66416   0.25306  -0.22516
C          C       0.60807   0.26976   0.25557  -0.23092
C          C       0.67052   0.39297   0.26107  -0.22712
C          C       0.73169   0.33160   0.25582  -0.22242
C          C       0.70119   0.36236   0.25421   0.03258
C          C       0.63931   0.33170   0.25832   0.03059
C          C       0.67023   0.30026   0.26210   0.02987
C          C       0.30785   0.63324   0.26758   0.02278
C          C       0.37076   0.66409   0.27225   0.02918
C          C       0.33888   0.69519   0.26114   0.03143
C          C       0.37044   0.69556   0.26744   0.02762
C          C       0.33950   0.63334   0.26968   0.03226
C          C       0.30740   0.66393   0.26092   0.03118
C          C       0.63917   0.30032   0.25846   0.02851
C          C       0.67018   0.36245   0.25764   0.02767
C          C       0.70142   0.33160   0.25850   0.02958
C          C       0.97835   0.49224   0.73572  -0.03235
C          C       0.50585   0.49615   0.73589  -0.03966
C          C       0.50784   0.01927   0.74959  -0.03019
C          C       0.01194   0.50867   0.73729  -0.03914
C          C       0.48896   0.51301   0.73151  -0.02868
C          C       0.49198   0.98589   0.75160  -0.02858
C          C       0.94786   0.47707   0.73620  -0.07165
C          C       0.52051   0.47976   0.74264  -0.06567
C          C       0.52176   0.04969   0.74861  -0.07750
C          C       0.04266   0.52368   0.73866  -0.06778
C          C       0.47351   0.52813   0.72981  -0.07444
C          C       0.47685   0.95537   0.75379  -0.07885
C          C       0.91215   0.45983   0.72861   0.13077
C          C       0.53829   0.46168   0.75306   0.12817
C          C       0.53873   0.08462   0.74960   0.12570
C          C       0.07846   0.54133   0.74624   0.12984
C          C       0.45541   0.54506   0.72804   0.13485
C          C       0.45925   0.92038   0.75716   0.13016
C          C       0.89493   0.47737   0.73125  -0.13923
C          C       0.52242   0.42675   0.77306  -0.12635
C          C       0.57485   0.10286   0.75923  -0.13532
C          C       0.09582   0.52452   0.73766  -0.13094
C          C       0.47268   0.58010   0.73342  -0.13594
C          C       0.42328   0.90272   0.74969  -0.13459
C          C       0.47729   0.90228   0.76859  -0.13696
C          C       0.41966   0.52751   0.72146  -0.13553
C          C       0.09798   0.57639   0.76571  -0.12869
C          C       0.52042   0.10209   0.74170  -0.13459
C          C       0.57287   0.47831   0.74712  -0.13593
C          C       0.89248   0.42470   0.71400  -0.13234
C          C       0.85931   0.46026   0.72068  -0.04424
C          C       0.54060   0.40928   0.78520  -0.05902
C          C       0.59209   0.13737   0.76201  -0.04942
C          C       0.13132   0.54233   0.74717  -0.04816
C          C       0.45509   0.59669   0.73480  -0.06005
C          C       0.40610   0.86823   0.75246  -0.04860
C          C       0.45955   0.86775   0.77001  -0.04912
C          C       0.40229   0.54435   0.72294  -0.04084
C          C       0.13337   0.59391   0.77397  -0.05786
C          C       0.53787   0.13660   0.74383  -0.04941
C          C       0.59066   0.46048   0.75984  -0.04518
C          C       0.85705   0.40792   0.70505  -0.06257
C          C       0.83985   0.42522   0.70969  -0.22486
C          C       0.57478   0.42561   0.77683  -0.22577
C          C       0.57396   0.15495   0.75412  -0.23776
C          C       0.15067   0.57732   0.76422  -0.22817
C          C       0.41977   0.57928   0.73187  -0.22663
C          C       0.42359   0.84996   0.76131  -0.23834
C          C       0.75279   0.39583   0.73813   0.16979
C          C       0.60312   0.36590   0.75738   0.17457
C          C       0.63346   0.24528   0.75654   0.17450
C          C       0.24098   0.60805   0.76314   0.17412
C          C       0.39300   0.63864   0.76942   0.18397
C          C       0.36196   0.75968   0.75543   0.17047
C          C       0.39277   0.75963   0.76272   0.17440
C          C       0.36175   0.60850   0.75840   0.17295
C          C       0.23991   0.63803   0.75345   0.17503
C          C       0.60307   0.24492   0.75495   0.17210
C          C       0.63403   0.39616   0.76472   0.17365
C          C       0.75292   0.36567   0.74182   0.18367
C          C       0.72489   0.39720   0.74688  -0.22240
C          C       0.60182   0.33598   0.75378  -0.21966
C          C       0.66345   0.27430   0.75661  -0.23522
C          C       0.27039   0.60730   0.76600  -0.22971
C          C       0.39472   0.66865   0.77579  -0.22935
C          C       0.33144   0.73064   0.75231  -0.23306
C          C       0.39401   0.73061   0.76715  -0.23289
C          C       0.33183   0.60741   0.75999  -0.22744
C          C       0.26860   0.66805   0.75007  -0.22282
C          C       0.60160   0.27375   0.75240  -0.23516
C          C       0.66397   0.39729   0.76265  -0.23207
C          C       0.72477   0.33588   0.75126  -0.22759
C          C       0.69477   0.36687   0.75380   0.02430
C          C       0.63244   0.33593   0.75465   0.02711
C          C       0.66344   0.30476   0.75651   0.03003
C          C       0.30065   0.63781   0.76243   0.03281
C          C       0.36355   0.66863   0.76953   0.02965
C          C       0.33157   0.69992   0.75719   0.02746
C          C       0.36316   0.69994   0.76518   0.03203
C          C       0.33231   0.63789   0.76502   0.02620
C          C       0.30000   0.66845   0.75654   0.02838
C          C       0.63230   0.30452   0.75374   0.02894
C          C       0.66351   0.36682   0.75639   0.03252
C          C       0.69467   0.33609   0.75433   0.03251
O          O       0.79158   0.36773   0.23858  -0.34509
O          O       0.63566   0.41813   0.27479  -0.34040
O          O       0.58246   0.20827   0.25662  -0.33604
O          O       0.21518   0.62854   0.25658  -0.33917
O          O       0.37242   0.57728   0.24397  -0.33865
O          O       0.42410   0.78821   0.25594  -0.34053
O          O       0.37259   0.78667   0.24846  -0.33631
O          O       0.42482   0.62691   0.26435  -0.34277
O          O       0.21671   0.57844   0.27933  -0.34116
O          O       0.63381   0.20814   0.27124  -0.33924
O          O       0.58490   0.36797   0.26916  -0.33841
O          O       0.78998   0.41745   0.22244  -0.34085
O          O       0.78411   0.37169   0.73183  -0.34358
O          O       0.62879   0.42207   0.77622  -0.33940
O          O       0.57719   0.21234   0.75538  -0.33844
O          O       0.20715   0.63144   0.75172  -0.34389
O          O       0.36644   0.58251   0.74257  -0.34403
O          O       0.41935   0.79208   0.76459  -0.33819
O          O       0.36850   0.79225   0.75450  -0.34079
O          O       0.41879   0.63254   0.76579  -0.34079
O          O       0.20933   0.58188   0.77028  -0.33988
O          O       0.62742   0.21309   0.75518  -0.33644
O          O       0.57710   0.37191   0.76007  -0.34092
O          O       0.78350   0.42173   0.72194  -0.34192

