data_crystal

_audit_creation_method 'AiiDA-DDEC plugin'

_cell_length_a        22.63414
_cell_length_b        22.14553
_cell_length_c         9.61912

_cell_angle_alpha     90.12253
_cell_angle_beta     90.16386
_cell_angle_gamma     120.58819

_symmetry_space_group_name_Hall 'P 1'
_symmetry_space_group_name_H-M  'P 1'

loop_
_symmetry_equiv_pos_as_xyz
 'x,y,z'

loop_
_atom_site_label
_atom_site_type_symbol
_atom_site_fract_x
_atom_site_fract_y
_atom_site_fract_z
_atom_site_charge
H          H       0.49851   0.15556   0.03327   0.13161
H          H       0.84084   0.34607   0.03697   0.11363
H          H       0.65976   0.50256   0.03983   0.10997
H          H       0.15470   0.50165   0.45026   0.13001
H          H       0.34970   0.84741   0.45684   0.11161
H          H       0.49427   0.65241   0.48780   0.11007
H          H       0.55503   0.40106   0.08428   0.10365
H          H       0.60158   0.15230   0.08233   0.10604
H          H       0.84740   0.45214   0.08235   0.10304
H          H       0.39158   0.54692   0.43096   0.10462
H          H       0.15164   0.60729   0.41100   0.10617
H          H       0.44990   0.84581   0.41275   0.10306
H          H       0.42355   0.27373   0.33118   0.06156
H          H       0.72414   0.14690   0.33407   0.06731
H          H       0.86035   0.58786   0.32794   0.06823
H          H       0.27032   0.41845   0.16844   0.06222
H          H       0.15113   0.73385   0.15888   0.06824
H          H       0.58265   0.85080   0.18035   0.06816
H          H       0.54244   0.50177   0.40646   0.10039
H          H       0.50113   0.03876   0.40123   0.10935
H          H       0.95592   0.45865   0.40366   0.09775
H          H       0.49402   0.53904   0.11326   0.10021
H          H       0.04034   0.50512   0.09440   0.11050
H          H       0.46245   0.95537   0.09941   0.09743
H          H       0.35241   0.30492   0.40393   0.10347
H          H       0.69200   0.04109   0.40346   0.10870
H          H       0.96171   0.65567   0.40496   0.10783
H          H       0.30275   0.34354   0.09983   0.10408
H          H       0.04593   0.70190   0.09006   0.10809
H          H       0.65066   0.95254   0.09176   0.10804
H          H       0.60384   0.41889   0.35654   0.10636
H          H       0.63817   0.36841   0.29677   0.10663
H          H       0.57688   0.18539   0.35528   0.11458
H          H       0.62534   0.27152   0.29411   0.10538
H          H       0.72080   0.35855   0.29059   0.10605
H          H       0.80615   0.39488   0.34583   0.10685
H          H       0.36526   0.64046   0.21525   0.10717
H          H       0.41426   0.60377   0.16229   0.10763
H          H       0.27140   0.62902   0.20784   0.10425
H          H       0.18750   0.57839   0.14392   0.11428
H          H       0.39412   0.81235   0.15129   0.10582
H          H       0.35625   0.72594   0.21053   0.10485
H          H       0.31734   0.10213   0.19363   0.10759
H          H       0.35909   0.13447   0.02898   0.09918
H          H       0.34220   0.18941   0.13873   0.08934
H          H       0.91801   0.29418   0.29690   0.11133
H          H       0.89044   0.35386   0.24485   0.10594
H          H       0.91250   0.31003   0.11596   0.09961
H          H       0.72523   0.65016   0.26756   0.11148
H          H       0.65971   0.56047   0.23691   0.10292
H          H       0.70475   0.61678   0.09332   0.09344
H          H       0.09978   0.31554   0.27166   0.10696
H          H       0.11697   0.35328   0.44335   0.09962
H          H       0.17814   0.33690   0.35989   0.09012
H          H       0.63735   0.70850   0.26303   0.11025
H          H       0.54889   0.64494   0.29752   0.10418
H          H       0.60565   0.69447   0.43754   0.09765
H          H       0.30471   0.93169   0.20011   0.11339
H          H       0.36017   0.89996   0.25292   0.10482
H          H       0.31852   0.92409   0.38125   0.09856
H          H       0.49668   0.15299   0.54387   0.13103
H          H       0.83920   0.34841   0.53022   0.11234
H          H       0.65136   0.49750   0.54954   0.10979
H          H       0.15827   0.49972   0.94714   0.13061
H          H       0.34948   0.84537   0.96201   0.11299
H          H       0.49660   0.65223   0.98225   0.10970
H          H       0.54889   0.39732   0.58995   0.10239
H          H       0.60231   0.15157   0.58574   0.10551
H          H       0.84559   0.45634   0.57566   0.10543
H          H       0.39603   0.54745   0.92838   0.10329
H          H       0.15261   0.60438   0.91797   0.10610
H          H       0.44990   0.84455   0.91403   0.10306
H          H       0.41999   0.27035   0.84102   0.06024
H          H       0.72818   0.14643   0.82696   0.06830
H          H       0.85376   0.58568   0.83366   0.06847
H          H       0.27600   0.41930   0.66443   0.06125
H          H       0.15033   0.73091   0.66789   0.06804
H          H       0.58117   0.85060   0.67578   0.06717
H          H       0.53767   0.49779   0.91608   0.09934
H          H       0.50511   0.04150   0.90141   0.10982
H          H       0.95435   0.46194   0.89850   0.09900
H          H       0.49932   0.54263   0.60604   0.09980
H          H       0.04148   0.50176   0.59988   0.10954
H          H       0.46000   0.95359   0.60038   0.09679
H          H       0.34680   0.30165   0.91013   0.10251
H          H       0.69402   0.03997   0.90268   0.10843
H          H       0.95869   0.65804   0.90247   0.10746
H          H       0.30879   0.34623   0.59502   0.10315
H          H       0.04758   0.69881   0.59409   0.10869
H          H       0.65015   0.95449   0.59397   0.10818
H          H       0.61076   0.42263   0.85185   0.10362
H          H       0.64426   0.37151   0.79158   0.10663
H          H       0.58011   0.18801   0.84686   0.11354
H          H       0.63108   0.27458   0.78975   0.10449
H          H       0.72668   0.35917   0.78915   0.10473
H          H       0.81103   0.39408   0.84872   0.10721
H          H       0.36251   0.64213   0.71607   0.10766
H          H       0.41058   0.60429   0.66396   0.10771
H          H       0.26886   0.63267   0.70612   0.10355
H          H       0.18485   0.58232   0.64250   0.11358
H          H       0.39275   0.81437   0.64835   0.10407
H          H       0.35398   0.72816   0.70886   0.10457
H          H       0.34944   0.12213   0.55769   0.10071
H          H       0.34151   0.18714   0.65334   0.09137
H          H       0.31552   0.10372   0.73124   0.10640
H          H       0.92382   0.29286   0.76472   0.11432
H          H       0.89748   0.35474   0.72270   0.10702
H          H       0.91114   0.30763   0.58683   0.09737
H          H       0.70223   0.62617   0.81615   0.10721
H          H       0.64427   0.53947   0.75145   0.10261
H          H       0.69026   0.61075   0.63240   0.09687
H          H       0.10916   0.31521   0.75549   0.10560
H          H       0.12443   0.34835   0.93068   0.09887
H          H       0.18841   0.33837   0.84185   0.09024
H          H       0.63742   0.70950   0.74955   0.10872
H          H       0.55015   0.64553   0.79134   0.10392
H          H       0.60961   0.69641   0.92695   0.09755
H          H       0.30202   0.92729   0.70118   0.11407
H          H       0.35778   0.89560   0.75192   0.10499
H          H       0.31891   0.92234   0.88174   0.09883
C          C       0.47484   0.22622   0.13574   0.20714
C          C       0.77245   0.24928   0.14125   0.21203
C          C       0.75604   0.53172   0.13970   0.21167
C          C       0.22263   0.47283   0.35837   0.20855
C          C       0.25369   0.78082   0.35159   0.21545
C          C       0.52500   0.74847   0.37667   0.21110
C          C       0.51214   0.21008   0.04370  -0.25592
C          C       0.78830   0.30315   0.04698  -0.29212
C          C       0.70149   0.49203   0.04894  -0.29234
C          C       0.20723   0.51235   0.44758  -0.25535
C          C       0.30590   0.79464   0.44647  -0.29293
C          C       0.48494   0.69529   0.47067  -0.29384
C          C       0.56268   0.25960   0.47348   0.10828
C          C       0.73466   0.30559   0.46599   0.10946
C          C       0.69256   0.43565   0.47213   0.10651
C          C       0.26105   0.56435   0.02966   0.10817
C          C       0.30574   0.73920   0.03175   0.11040
C          C       0.43310   0.69379   0.04226   0.10829
C          C       0.57521   0.32895   0.48140   0.05853
C          C       0.66707   0.24812   0.47598   0.04366
C          C       0.74878   0.42489   0.47441   0.04691
C          C       0.32835   0.57552   0.02940   0.05856
C          C       0.24874   0.67043   0.02398   0.04314
C          C       0.42130   0.75015   0.02945   0.04856
C          C       0.54392   0.34750   0.07122  -0.13975
C          C       0.65396   0.19552   0.07000  -0.13500
C          C       0.80551   0.46237   0.07045  -0.13309
C          C       0.33974   0.53780   0.43789  -0.14007
C          C       0.19592   0.65979   0.42313  -0.13803
C          C       0.45862   0.80256   0.43124  -0.13522
C          C       0.49216   0.29644   0.15583  -0.05487
C          C       0.70336   0.19495   0.15753  -0.05333
C          C       0.80797   0.51459   0.15714  -0.05244
C          C       0.29066   0.48705   0.34722  -0.05736
C          C       0.19789   0.71132   0.33528  -0.05429
C          C       0.51004   0.80226   0.35074  -0.05130
C          C       0.46078   0.31624   0.26463   0.08936
C          C       0.68315   0.14259   0.26615   0.09335
C          C       0.86043   0.54666   0.26468   0.09061
C          C       0.31097   0.45496   0.23966   0.08872
C          C       0.14609   0.69181   0.22693   0.09350
C          C       0.54328   0.85384   0.24102   0.08954
C          C       0.38489   0.35696   0.44823  -0.16046
C          C       0.64118   0.02218   0.44667  -0.15790
C          C       0.97869   0.62152   0.44757  -0.15503
C          C       0.35418   0.37760   0.05954  -0.16525
C          C       0.02578   0.64916   0.04881  -0.16016
C          C       0.61850   0.97183   0.05053  -0.15803
C          C       0.49173   0.46823   0.45046  -0.15457
C          C       0.53328   0.02030   0.44613  -0.15531
C          C       0.97600   0.51088   0.44771  -0.15444
C          C       0.46224   0.48753   0.06618  -0.14990
C          C       0.02207   0.53796   0.05040  -0.15240
C          C       0.51265   0.97382   0.05337  -0.14966
C          C       0.45140   0.40029   0.39423   0.20974
C          C       0.59973   0.04724   0.39169   0.21129
C          C       0.95135   0.55302   0.39331   0.20682
C          C       0.39510   0.44527   0.11737   0.20983
C          C       0.04998   0.60656   0.10371   0.21003
C          C       0.55248   0.94674   0.10686   0.20755
C          C       0.75311   0.37093   0.38341  -0.23576
C          C       0.60714   0.24041   0.38925  -0.23902
C          C       0.62752   0.38873   0.39120  -0.23806
C          C       0.36913   0.75751   0.11604  -0.23570
C          C       0.38587   0.62842   0.12348  -0.23905
C          C       0.24139   0.60982   0.11177  -0.23603
C          C       0.35618   0.14847   0.13766  -0.18322
C          C       0.88913   0.30475   0.21875  -0.18074
C          C       0.70959   0.60396   0.20175  -0.18002
C          C       0.13985   0.35284   0.34271  -0.18332
C          C       0.59286   0.69631   0.32773  -0.18411
C          C       0.31296   0.90053   0.27762  -0.17875
C          C       0.47178   0.22298   0.64579   0.20644
C          C       0.77370   0.25047   0.63430   0.21415
C          C       0.74793   0.52746   0.64909   0.21194
C          C       0.22719   0.47263   0.85383   0.20554
C          C       0.25317   0.77812   0.85835   0.21355
C          C       0.52597   0.74838   0.87287   0.21134
C          C       0.50920   0.20724   0.55311  -0.25524
C          C       0.78719   0.30471   0.54253  -0.29136
C          C       0.69420   0.48856   0.55604  -0.29496
C          C       0.21102   0.51111   0.94436  -0.25332
C          C       0.30607   0.79235   0.95163  -0.29044
C          C       0.48688   0.69500   0.96716  -0.29324
C          C       0.56663   0.26230   0.96608   0.10755
C          C       0.73734   0.30468   0.96593   0.10873
C          C       0.69832   0.43734   0.96860   0.10753
C          C       0.25778   0.56604   0.53112   0.11062
C          C       0.30451   0.74144   0.52810   0.10876
C          C       0.43075   0.69448   0.54330   0.10891
C          C       0.58029   0.33198   0.97521   0.05792
C          C       0.66914   0.24823   0.97329   0.04430
C          C       0.75316   0.42446   0.97425   0.04689
C          C       0.32484   0.57651   0.53101   0.05693
C          C       0.24709   0.67296   0.52002   0.04457
C          C       0.41970   0.75128   0.52895   0.04830
C          C       0.53867   0.34402   0.57797  -0.13960
C          C       0.65415   0.19559   0.57157  -0.13747
C          C       0.80202   0.46420   0.56823  -0.13386
C          C       0.34403   0.53791   0.93504  -0.14162
C          C       0.19675   0.65700   0.92924  -0.13885
C          C       0.45926   0.80165   0.93144  -0.13421
C          C       0.48801   0.29299   0.66445  -0.05604
C          C       0.70515   0.19563   0.65496  -0.05340
C          C       0.80270   0.51409   0.65942  -0.05234
C          C       0.29549   0.48759   0.84319  -0.05283
C          C       0.19781   0.70842   0.84250  -0.05507
C          C       0.51030   0.80178   0.84894  -0.05217
C          C       0.45673   0.31278   0.77368   0.08962
C          C       0.68639   0.14294   0.76281   0.09132
C          C       0.85564   0.54672   0.76621   0.08998
C          C       0.31644   0.45646   0.73512   0.08891
C          C       0.14596   0.68871   0.73454   0.09405
C          C       0.54268   0.85369   0.73954   0.09132
C          C       0.37927   0.35375   0.95432  -0.16370
C          C       0.64320   0.02156   0.94539  -0.15847
C          C       0.97626   0.62427   0.94447  -0.15852
C          C       0.36007   0.38052   0.55430  -0.16048
C          C       0.02764   0.64613   0.55274  -0.15795
C          C       0.61734   0.97290   0.55249  -0.15791
C          C       0.48647   0.46458   0.95826  -0.15036
C          C       0.53636   0.02176   0.94546  -0.15232
C          C       0.97430   0.51402   0.94308  -0.15031
C          C       0.46779   0.49096   0.55940  -0.15433
C          C       0.02362   0.53481   0.55526  -0.15536
C          C       0.51044   0.97288   0.55490  -0.14967
C          C       0.44616   0.39673   0.90160   0.20965
C          C       0.60270   0.04789   0.89088   0.20983
C          C       0.94917   0.55595   0.88966   0.20564
C          C       0.40094   0.44832   0.61159   0.21069
C          C       0.05143   0.60337   0.60860   0.21048
C          C       0.55126   0.94706   0.60891   0.20590
C          C       0.75761   0.37044   0.88368  -0.23466
C          C       0.61098   0.24254   0.88331  -0.23762
C          C       0.63350   0.39158   0.88628  -0.23517
C          C       0.36745   0.75939   0.61381  -0.23395
C          C       0.38273   0.62941   0.62454  -0.23751
C          C       0.23882   0.61273   0.61030  -0.23801
C          C       0.35284   0.14445   0.66185  -0.18592
C          C       0.89277   0.30429   0.69399  -0.18241
C          C       0.69313   0.58854   0.73276  -0.18162
C          C       0.14816   0.35194   0.82892  -0.18299
C          C       0.59433   0.69732   0.81855  -0.18233
C          C       0.31135   0.89711   0.77931  -0.18093
N          N       0.48039   0.38154   0.28722  -0.30238
N          N       0.61901   0.09639   0.28561  -0.30318
N          N       0.90181   0.52346   0.28853  -0.30408
N          N       0.37488   0.47375   0.22347  -0.30004
N          N       0.09918   0.62660   0.20849  -0.30221
N          N       0.52306   0.89779   0.21341  -0.30168
N          N       0.47545   0.37793   0.79519  -0.30020
N          N       0.62235   0.09753   0.78558  -0.30024
N          N       0.89968   0.52646   0.78471  -0.30202
N          N       0.38067   0.47659   0.71795  -0.30164
N          N       0.10019   0.62331   0.71424  -0.30359
N          N       0.52257   0.89798   0.71530  -0.30138
O          O       0.76275   0.58755   0.21605  -0.16765
O          O       0.42050   0.17203   0.20836  -0.21348
O          O       0.82065   0.24579   0.22266  -0.17066
O          O       0.25351   0.83166   0.27009  -0.17255
O          O       0.57899   0.75168   0.30450  -0.16922
O          O       0.17040   0.42046   0.27731  -0.21316
O          O       0.75047   0.57813   0.73643  -0.16856
O          O       0.41943   0.16904   0.72271  -0.21271
O          O       0.82384   0.24706   0.70889  -0.17037
O          O       0.25160   0.82838   0.77735  -0.17030
O          O       0.57953   0.75220   0.79795  -0.17031
O          O       0.17554   0.42084   0.77075  -0.21154

