data_crystal

_audit_creation_method 'AiiDA-DDEC plugin'

_cell_length_a        31.88526
_cell_length_b        31.62806
_cell_length_c         8.86209

_cell_angle_alpha     90.00382
_cell_angle_beta     90.09283
_cell_angle_gamma     120.71044

_symmetry_space_group_name_Hall 'P 1'
_symmetry_space_group_name_H-M  'P 1'

loop_
_symmetry_equiv_pos_as_xyz
 'x,y,z'

loop_
_atom_site_label
_atom_site_type_symbol
_atom_site_fract_x
_atom_site_fract_y
_atom_site_fract_z
_atom_site_charge
H          H       0.38933   0.58554   0.27515   0.10795
H          H       0.41343   0.79993   0.25162   0.10920
H          H       0.20153   0.61062   0.23906   0.10764
H          H       0.59027   0.39050   0.24489   0.10138
H          H       0.80002   0.41493   0.22764   0.10338
H          H       0.61018   0.19992   0.22028   0.10717
H          H       0.21689   0.54146   0.26350   0.13104
H          H       0.45659   0.67105   0.28826   0.13178
H          H       0.32759   0.78613   0.28799   0.13345
H          H       0.53967   0.21584   0.18762   0.11432
H          H       0.67266   0.45926   0.21404   0.11177
H          H       0.78275   0.33202   0.19686   0.11088
H          H       0.33354   0.42577   0.50383   0.10247
H          H       0.56119   0.89040   0.43204   0.10043
H          H       0.09854   0.66421   0.48833   0.10345
H          H       0.43081   0.33434   0.97790   0.10775
H          H       0.90882   0.56969   0.95933   0.10884
H          H       0.66583   0.10276   0.01980   0.10772
H          H       0.36808   0.38628   0.34757   0.09716
H          H       0.59717   0.96324   0.27160   0.09664
H          H       0.02344   0.62945   0.33441   0.09807
H          H       0.39153   0.36947   0.13187   0.09640
H          H       0.98510   0.60909   0.10909   0.09780
H          H       0.63071   0.03001   0.18070   0.09713
H          H       0.46449   0.56577   0.44530   0.11432
H          H       0.43392   0.90187   0.49468   0.11259
H          H       0.11203   0.53910   0.38433   0.11303
H          H       0.57174   0.45081   0.11988   0.10405
H          H       0.88097   0.42739   0.09505   0.10333
H          H       0.52956   0.09932   0.01914   0.10238
H          H       0.49851   0.52675   0.28240   0.10041
H          H       0.47040   0.97639   0.33655   0.09691
H          H       0.03707   0.50455   0.22636   0.10193
H          H       0.53252   0.48480   0.28101   0.10097
H          H       0.95688   0.46683   0.24932   0.10143
H          H       0.49304   0.02493   0.17770   0.09626
H          H       0.30901   0.48265   0.01355   0.06157
H          H       0.51603   0.81880   0.00450   0.05801
H          H       0.18084   0.69604   0.00254   0.06048
H          H       0.48079   0.30510   0.46919   0.07058
H          H       0.82588   0.52048   0.47381   0.07137
H          H       0.69350   0.18087   0.46876   0.06782
H          H       0.70542   0.34979   0.93509   0.10152
H          H       0.76508   0.36910   0.99171   0.10452
H          H       0.59586   0.23451   0.99290   0.10880
H          H       0.63582   0.29376   0.43236   0.10184
H          H       0.63457   0.40537   0.00666   0.10296
H          H       0.65338   0.36583   0.93932   0.10129
H          H       0.36030   0.65319   0.55251   0.10080
H          H       0.40098   0.63449   0.49785   0.11533
H          H       0.29146   0.63712   0.54074   0.10008
H          H       0.23266   0.59649   0.47350   0.11296
H          H       0.34563   0.70754   0.54762   0.10110
H          H       0.36619   0.76736   0.48420   0.11550
H          H       0.83325   0.28134   0.44844   0.11357
H          H       0.82089   0.32863   0.39617   0.10444
H          H       0.82853   0.29303   0.25255   0.09743
H          H       0.72888   0.56391   0.45617   0.11492
H          H       0.67956   0.50155   0.43140   0.10198
H          H       0.70904   0.53956   0.27020   0.09867
H          H       0.43213   0.16298   0.41058   0.11232
H          H       0.49245   0.17336   0.38620   0.10344
H          H       0.45842   0.17412   0.22549   0.10068
H          H       0.18653   0.41094   0.11144   0.10654
H          H       0.20126   0.44235   0.29049   0.10493
H          H       0.24405   0.42999   0.20081   0.09197
H          H       0.24205   0.79489   0.31865   0.10551
H          H       0.18827   0.75331   0.21524   0.09228
H          H       0.22701   0.81488   0.14703   0.10826
H          H       0.58609   0.76669   0.14206   0.10711
H          H       0.55174   0.75257   0.31467   0.10508
H          H       0.56853   0.80838   0.21593   0.09102
H          H       0.38758   0.58393   0.76791   0.10960
H          H       0.40986   0.79811   0.75845   0.10965
H          H       0.19951   0.60854   0.73358   0.10585
H          H       0.58671   0.38632   0.74573   0.10508
H          H       0.79923   0.41520   0.72757   0.10370
H          H       0.60859   0.19789   0.71641   0.10684
H          H       0.21479   0.53853   0.75818   0.13003
H          H       0.45645   0.67166   0.79201   0.13207
H          H       0.32500   0.78373   0.79332   0.13393
H          H       0.53994   0.21254   0.68946   0.11446
H          H       0.67096   0.45809   0.70572   0.11145
H          H       0.78131   0.33018   0.70519   0.11284
H          H       0.33649   0.43045   0.99590   0.10278
H          H       0.56423   0.89078   0.92275   0.10066
H          H       0.09890   0.66452   0.99438   0.10460
H          H       0.43498   0.34012   0.48600   0.10822
H          H       0.90889   0.56884   0.46483   0.10884
H          H       0.66962   0.10618   0.52514   0.10759
H          H       0.37353   0.39251   0.84535   0.09663
H          H       0.59968   0.96357   0.76158   0.09625
H          H       0.02394   0.62928   0.83934   0.09815
H          H       0.39714   0.37593   0.64232   0.09666
H          H       0.98576   0.60906   0.61103   0.09755
H          H       0.63451   0.03312   0.68523   0.09651
H          H       0.46818   0.57083   0.95952   0.11297
H          H       0.43858   0.90416  -0.00187   0.11274
H          H       0.11442   0.54086   0.88870   0.11267
H          H       0.57700   0.45787   0.61392   0.10167
H          H       0.88344   0.42717   0.59746   0.10362
H          H       0.53124   0.09827   0.50799   0.10288
H          H       0.50500   0.53355   0.80137   0.10041
H          H       0.47490   0.97910   0.84123   0.09752
H          H       0.04021   0.50617   0.72748   0.10182
H          H       0.53909   0.49264   0.77802   0.10020
H          H       0.95976   0.46733   0.74902   0.10065
H          H       0.49481   0.02314   0.66388   0.09675
H          H       0.30714   0.48031   0.50791   0.06112
H          H       0.51119   0.81711   0.50394   0.05999
H          H       0.17905   0.69546   0.50428   0.06045
H          H       0.47781   0.29948   0.96891   0.07002
H          H       0.82547   0.52267   0.96371   0.07171
H          H       0.69040   0.17757   0.96831   0.06850
H          H       0.70585   0.34813   0.43580   0.10212
H          H       0.76495   0.36747   0.49909   0.10471
H          H       0.59591   0.23319   0.48824   0.10763
H          H       0.63606   0.29432   0.93083   0.10172
H          H       0.63168   0.40179   0.50823   0.10289
H          H       0.65131   0.36283   0.44102   0.10177
H          H       0.35735   0.64961   0.04940   0.10162
H          H       0.39861   0.63178   0.99324   0.11568
H          H       0.28750   0.63268   0.03900   0.09958
H          H       0.22945   0.59267   0.96635   0.11305
H          H       0.34220   0.70346   0.04976   0.10070
H          H       0.36269   0.76373   0.99190   0.11582
H          H       0.82616   0.29470   0.76164   0.09799
H          H       0.83025   0.27623   0.94962   0.11350
H          H       0.81736   0.32468   0.92018   0.10251
H          H       0.72687   0.56489   0.93813   0.11479
H          H       0.67847   0.50203   0.91934   0.10341
H          H       0.70611   0.53879   0.75447   0.09580
H          H       0.42986   0.15791   0.90422   0.11284
H          H       0.48967   0.16732   0.87324   0.10354
H          H       0.45528   0.17059   0.71779   0.09966
H          H       0.18512   0.40804   0.60800   0.10625
H          H       0.19625   0.44065   0.78393   0.10374
H          H       0.24086   0.42807   0.70946   0.09254
H          H       0.24502   0.79794   0.81711   0.10501
H          H       0.18948   0.75602   0.72123   0.09284
H          H       0.22905   0.81610   0.64385   0.10692
H          H       0.58671   0.77674   0.63225   0.10705
H          H       0.55586   0.76418   0.81166   0.10467
H          H       0.56456   0.81524   0.69970   0.09086
C          C       0.43637   0.45333   0.30387   0.06030
C          C       0.53702   0.97648   0.28944   0.06426
C          C       0.02400   0.56391   0.27068   0.06166
C          C       0.45887   0.43046   0.21649   0.05668
C          C       0.97730   0.54102   0.18846   0.05819
C          C       0.55886   0.02118   0.19530   0.06213
C          C       0.38906   0.42590   0.36508  -0.12503
C          C       0.56136   0.95056   0.31982  -0.12048
C          C       0.04342   0.61009   0.34140  -0.12602
C          C       0.43105   0.38680   0.13325  -0.12381
C          C       0.96174   0.56926   0.10969  -0.12473
C          C       0.60788   0.04475   0.14707  -0.11868
C          C       0.36934   0.44805   0.45265  -0.18200
C          C       0.54076   0.90870   0.40952  -0.17121
C          C       0.08596   0.62998   0.42698  -0.18001
C          C       0.45308   0.36679   0.04670  -0.17844
C          C       0.91863   0.54723   0.02648  -0.17672
C          C       0.62817   0.08644   0.05664  -0.17054
C          C       0.39641   0.49899   0.48269   0.21008
C          C       0.49409   0.89012   0.47316   0.20933
C          C       0.11128   0.60448   0.44374   0.20759
C          C       0.50433   0.39002   0.03928   0.20869
C          C       0.88891   0.49558   0.01981   0.20815
C          C       0.60024   0.10717   0.00995   0.21160
C          C       0.44367   0.52649   0.42214  -0.15327
C          C       0.46961   0.91574   0.44377  -0.15350
C          C       0.09245   0.55871   0.37118  -0.15428
C          C       0.53222   0.43331   0.12362  -0.15900
C          C       0.90407   0.46723   0.09979  -0.15965
C          C       0.55129   0.08374   0.05689  -0.15968
C          C       0.46272   0.50429   0.33308  -0.12077
C          C       0.49048   0.95755   0.35434  -0.12538
C          C       0.05016   0.53926   0.28523  -0.12259
C          C       0.51004   0.45255   0.21184  -0.12144
C          C       0.94691   0.48944   0.18359  -0.12412
C          C       0.53126   0.04210   0.14694  -0.12415
C          C       0.33651   0.51295   0.08287   0.08744
C          C       0.48699   0.81790   0.07341   0.08471
C          C       0.18343   0.66733   0.06410   0.08892
C          C       0.51487   0.33375   0.41813   0.09771
C          C       0.82008   0.48746   0.41463   0.09853
C          C       0.66518   0.18241   0.40300   0.09296
C          C       0.31913   0.53795   0.17965  -0.04999
C          C       0.46108   0.77607   0.17455  -0.04607
C          C       0.22468   0.68340   0.16608  -0.05048
C          C       0.53956   0.31779   0.31509  -0.05172
C          C       0.77781   0.46275   0.31565  -0.05275
C          C       0.68153   0.22454   0.30335  -0.05141
C          C       0.26982   0.52504   0.18082   0.20920
C          C       0.47356   0.73949   0.18864   0.20525
C          C       0.26001   0.73341   0.18522   0.20924
C          C       0.52413   0.26756   0.29445   0.21368
C          C       0.74214   0.47669   0.30796   0.21483
C          C       0.73135   0.26183   0.29379   0.21440
C          C       0.25525   0.55243   0.26506  -0.24989
C          C       0.44610   0.69876   0.28040  -0.25273
C          C       0.30070   0.74720   0.27604  -0.25304
C          C       0.55081   0.25430   0.20114  -0.28833
C          C       0.70079   0.44963   0.21810  -0.28956
C          C       0.74478   0.30296   0.20362  -0.28737
C          C       0.28860   0.59293   0.35199   0.10075
C          C       0.40587   0.69298   0.36248   0.10298
C          C       0.30707   0.71219   0.35389   0.10308
C          C       0.59247   0.28968   0.12341   0.10903
C          C       0.69405   0.40937   0.13163   0.10818
C          C       0.71027   0.30859   0.12109   0.10735
C          C       0.33770   0.60473   0.35822   0.05644
C          C       0.39409   0.73039   0.35472   0.05527
C          C       0.27013   0.66207   0.34414   0.05617
C          C       0.60632   0.33965   0.13487   0.04556
C          C       0.73055   0.39680   0.13184   0.04576
C          C       0.66080   0.27083   0.12438   0.04548
C          C       0.35174   0.57719   0.27230  -0.14412
C          C       0.42160   0.77057   0.26071  -0.14285
C          C       0.23045   0.64890   0.24928  -0.14015
C          C       0.58002   0.35222   0.23180  -0.13381
C          C       0.77112   0.42358   0.22434  -0.13588
C          C       0.64792   0.22996   0.21525  -0.13695
C          C       0.72813   0.35604   0.03470  -0.23541
C          C       0.62098   0.27209   0.03279  -0.23320
C          C       0.64718   0.38051   0.04318  -0.23360
C          C       0.37646   0.64637   0.45355  -0.23955
C          C       0.27035   0.62180   0.43715  -0.23786
C          C       0.35321   0.72967   0.44537  -0.23879
C          C       0.81442   0.29195   0.36670  -0.18230
C          C       0.71461   0.53084   0.38605  -0.18327
C          C       0.46596   0.18335   0.34595  -0.18540
C          C       0.21579   0.43957   0.18072  -0.18855
C          C       0.22626   0.78384   0.20481  -0.18930
C          C       0.55751   0.76942   0.20218  -0.18833
C          C       0.44230   0.45984   0.81086   0.06414
C          C       0.54014   0.97751   0.78545   0.06459
C          C       0.02573   0.56455   0.77324   0.06095
C          C       0.46494   0.43720   0.72283   0.05880
C          C       0.97923   0.54136   0.68961   0.05778
C          C       0.56178   0.02221   0.69145   0.06282
C          C       0.39417   0.43196   0.86584  -0.12142
C          C       0.56428   0.95118   0.81265  -0.12177
C          C       0.04436   0.61035   0.84581  -0.12652
C          C       0.43663   0.39317   0.64149  -0.12251
C          C       0.96298   0.56916   0.61168  -0.12385
C          C       0.61129   0.04703   0.64812  -0.12064
C          C       0.37308   0.45323   0.95062  -0.17778
C          C       0.54397   0.90940   0.90262  -0.17392
C          C       0.08669   0.63046   0.93257  -0.18183
C          C       0.45789   0.37274   0.55344  -0.17268
C          C       0.91963   0.54666   0.52957  -0.17792
C          C       0.63156   0.08894   0.55860  -0.17086
C          C       0.39962   0.50387   0.98512   0.20937
C          C       0.49775   0.89124   0.96922   0.20952
C          C       0.11232   0.60531   0.95011   0.20714
C          C       0.50907   0.39586   0.54247   0.20913
C          C       0.89054   0.49498   0.52207   0.21108
C          C       0.60316   0.10877   0.50844   0.21147
C          C       0.44775   0.53187   0.93148  -0.15439
C          C       0.47361   0.91741   0.94332  -0.15001
C          C       0.09433   0.55996   0.87580  -0.15614
C          C       0.53752   0.43985   0.62328  -0.16107
C          C       0.90635   0.46704   0.60115  -0.16239
C          C       0.55358   0.08383   0.54963  -0.15693
C          C       0.46825   0.51051   0.84490  -0.12577
C          C       0.49423   0.95928   0.85416  -0.12343
C          C       0.05246   0.54047   0.78784  -0.12187
C          C       0.51604   0.45956   0.71291  -0.12507
C          C       0.94932   0.48973   0.68427  -0.12411
C          C       0.53354   0.04188   0.63844  -0.12365
C          C       0.33463   0.51024   0.57839   0.08741
C          C       0.48319   0.81681   0.57655   0.08281
C          C       0.18206   0.66624   0.56096   0.08991
C          C       0.51159   0.32849   0.91733   0.09538
C          C       0.81922   0.48896   0.90802   0.09686
C          C       0.66243   0.17989   0.90301   0.09276
C          C       0.31742   0.53576   0.67372  -0.04791
C          C       0.45824   0.77541   0.67942  -0.04972
C          C       0.22288   0.68176   0.66430  -0.04941
C          C       0.53713   0.31318   0.81548  -0.05219
C          C       0.77692   0.46364   0.80920  -0.05427
C          C       0.67937   0.22213   0.80389  -0.05150
C          C       0.26804   0.52251   0.67530   0.20785
C          C       0.47196   0.73975   0.69321   0.20727
C          C       0.25819   0.73167   0.68659   0.20875
C          C       0.52258   0.26317   0.79500   0.21259
C          C       0.74109   0.47724   0.79812   0.21613
C          C       0.72919   0.25947   0.79750   0.21342
C          C       0.25324   0.54979   0.75918  -0.25026
C          C       0.44490   0.69853   0.78345  -0.24975
C          C       0.29824   0.74484   0.77967  -0.25338
C          C       0.55003   0.25074   0.70232  -0.28905
C          C       0.69920   0.44863   0.71192  -0.28877
C          C       0.74328   0.30113   0.70925  -0.28689
C          C       0.28634   0.59034   0.84652   0.10112
C          C       0.40378   0.69138   0.86357   0.10089
C          C       0.30419   0.70946   0.85669   0.10337
C          C       0.59128   0.28672   0.62448   0.10939
C          C       0.69225   0.40738   0.63081   0.10920
C          C       0.70927   0.30699   0.62452   0.10705
C          C       0.33565   0.60262   0.85214   0.05854
C          C       0.39138   0.72837   0.85838   0.05569
C          C       0.26739   0.65939   0.84333   0.05495
C          C       0.60453   0.33648   0.63689   0.04513
C          C       0.72925   0.39544   0.63231   0.04481
C          C       0.65989   0.26906   0.62441   0.04627
C          C       0.34993   0.57538   0.76536  -0.14452
C          C       0.41867   0.76917   0.76642  -0.14162
C          C       0.22822   0.64681   0.74668  -0.14055
C          C       0.57757   0.34831   0.73340  -0.13332
C          C       0.77011   0.42352   0.72248  -0.13551
C          C       0.64638   0.22785   0.71399  -0.13665
C          C       0.72759   0.35447   0.53798  -0.23297
C          C       0.62039   0.27042   0.53192  -0.23645
C          C       0.64503   0.37754   0.54470  -0.23544
C          C       0.37409   0.64381   0.94999  -0.24018
C          C       0.26737   0.61841   0.93321  -0.23729
C          C       0.35000   0.72647   0.94950  -0.23981
C          C       0.81151   0.28943   0.87688  -0.18225
C          C       0.71286   0.53134   0.87052  -0.18150
C          C       0.46350   0.17844   0.83872  -0.18489
C          C       0.21292   0.43726   0.67946  -0.18586
C          C       0.22776   0.78541   0.70558  -0.18659
C          C       0.55744   0.77730   0.69553  -0.18789
N          N       0.53378   0.37995   0.45029  -0.30450
N          N       0.61919   0.14991   0.41561  -0.30762
N          N       0.84828   0.46959   0.43486  -0.30489
N          N       0.38258   0.52819   0.07486  -0.29409
N          N       0.15297   0.62100   0.04309  -0.29104
N          N       0.47401   0.85046   0.06403  -0.29747
N          N       0.52961   0.37462   0.94796  -0.29964
N          N       0.61629   0.14808   0.91626  -0.30670
N          N       0.84670   0.47048   0.93231  -0.30169
N          N       0.38042   0.52418   0.57299  -0.29191
N          N       0.15229   0.62004   0.53508  -0.29386
N          N       0.47045   0.84959   0.56882  -0.29637
O          O       0.75082   0.51698   0.39175  -0.16794
O          O       0.76387   0.25497   0.37721  -0.17026
O          O       0.48289   0.23422   0.37114  -0.16873
O          O       0.51382   0.74382   0.11197  -0.21640
O          O       0.25443   0.76955   0.11360  -0.21893
O          O       0.23505   0.48489   0.09733  -0.21632
O          O       0.75004   0.51877   0.87504  -0.16950
O          O       0.76112   0.25193   0.88133  -0.16925
O          O       0.48137   0.22918   0.87101  -0.17114
O          O       0.51263   0.74528   0.61618  -0.21618
O          O       0.25382   0.76850   0.61473  -0.21808
O          O       0.23357   0.48193   0.59261  -0.21724

