data_crystal

_audit_creation_method 'AiiDA-DDEC plugin'

_cell_length_a        17.96961
_cell_length_b        18.05778
_cell_length_c         7.31469

_cell_angle_alpha     91.60919
_cell_angle_beta     78.90940
_cell_angle_gamma     116.54194

_symmetry_space_group_name_Hall 'P 1'
_symmetry_space_group_name_H-M  'P 1'

loop_
_symmetry_equiv_pos_as_xyz
 'x,y,z'

loop_
_atom_site_label
_atom_site_type_symbol
_atom_site_fract_x
_atom_site_fract_y
_atom_site_fract_z
_atom_site_charge
H          H       0.86415   0.32751   0.35586   0.11602
H          H       0.68710   0.54638   0.28916   0.10989
H          H       0.48889   0.17067   0.16573   0.11264
H          H       0.01376   0.41195   0.39145   0.11562
H          H       0.61199   0.63302   0.26647   0.11629
H          H       0.40962   0.01550   0.18379   0.11928
H          H       0.00328   0.63297   0.22268   0.11627
H          H       0.40537   0.42077   0.10862   0.11603
H          H       0.61162  -0.00030   0.38548   0.11598
H          H       0.85079   0.54774   0.20209   0.10996
H          H       0.47916   0.33450   0.14080   0.11389
H          H       0.69474   0.15405   0.34596   0.11272
H          H       0.25861   0.77115   0.37955   0.10949
H          H       0.25561   0.54339   0.19002   0.11870
H          H       0.49254   0.75099   0.22585   0.11833
H          H       0.83967   0.28875   0.86236   0.11364
H          H       0.66854   0.51749   0.77513   0.11467
H          H       0.47070   0.13958   0.67263   0.11300
H          H       0.99674   0.36548   0.84559   0.11740
H          H       0.57985   0.59262   0.80083   0.11680
H          H       0.39632   0.98604   0.65781   0.11464
H          H       0.99455   0.59181   0.68590   0.11587
H          H       0.37391   0.37291   0.66518   0.11979
H          H       0.60037   0.96626   0.84295   0.12022
H          H       0.83781   0.51574   0.71302   0.11286
H          H       0.46230   0.29660   0.64955   0.11354
H          H       0.67572   0.12080   0.85076   0.11596
H          H       0.24741   0.73428   0.64250   0.10293
H          H       0.24573   0.50238   0.76325   0.11714
H          H       0.46437   0.73405   0.79623   0.11373
C          C       0.15807   0.59873   0.41526   0.14621
C          C       0.42274   0.59804   0.07025   0.14005
C          C       0.42199   0.84836   0.40864   0.14857
C          C       0.84745   0.43241   0.27926  -0.00966
C          C       0.58909   0.43583   0.21101  -0.00241
C          C       0.59614   0.17253   0.25803  -0.00988
C          C       0.89473   0.39454   0.32867  -0.08536
C          C       0.62603   0.52050   0.24710  -0.09305
C          C       0.51489   0.13254   0.21389  -0.08575
C          C       0.97813   0.44157   0.34958  -0.17491
C          C       0.58460   0.56826   0.23412  -0.16787
C          C       0.47063   0.04704   0.22566  -0.17285
C          C       0.01764   0.52875   0.31610   0.23104
C          C       0.50599   0.53416   0.17458   0.22464
C          C       0.50318   0.99804   0.29680   0.22644
C          C       0.97147   0.56635   0.25581  -0.17853
C          C       0.46740   0.44830   0.14611  -0.16416
C          C       0.58564   0.03752   0.33578  -0.17580
C          C       0.88760   0.51924   0.24291  -0.08714
C          C       0.50815   0.40015   0.16614  -0.08919
C          C       0.63163   0.12348   0.31358  -0.08304
C          C       0.38039   0.77005   0.31067   0.05159
C          C       0.24737   0.65026   0.30849   0.06244
C          C       0.37993   0.64706   0.16974   0.06864
C          C       0.29235   0.73541   0.32543  -0.16010
C          C       0.29117   0.60813   0.21746  -0.17361
C          C       0.42441   0.72554   0.23469  -0.17785
C          C       0.63559   0.38729   0.22599   0.37517
C          C       0.64046   0.26382   0.24940   0.37348
C          C       0.75782   0.38503   0.26414   0.37663
C          C       0.15524   0.57271   0.62017   0.14469
C          C       0.40046   0.57161   0.87953   0.14382
C          C       0.41681   0.83256   0.62038   0.14322
C          C       0.82941   0.39722   0.78310  -0.00589
C          C       0.57001   0.40177   0.71654  -0.00535
C          C       0.57873   0.14023   0.75729  -0.00975
C          C       0.87437   0.35482   0.82283  -0.09200
C          C       0.60403   0.48644   0.75075  -0.08764
C          C       0.49876   0.10104   0.70811  -0.08885
C          C       0.96123   0.39699   0.81258  -0.16929
C          C       0.55421   0.52780   0.76867  -0.16332
C          C       0.45812   0.01584   0.69674  -0.16808
C          C       0.00667   0.48202   0.75133   0.22235
C          C       0.46858   0.48546   0.74928   0.22645
C          C       0.49620   0.96652   0.73848   0.21933
C          C       0.96082   0.52541   0.72250  -0.16680
C          C       0.43779   0.40298   0.69320  -0.17120
C          C       0.57368   0.00517   0.80169  -0.17053
C          C       0.87343   0.48338   0.74033  -0.08236
C          C       0.48678   0.36118   0.68335  -0.09284
C          C       0.61519   0.09083   0.80615  -0.09026
C          C       0.36461   0.74371   0.69425   0.05520
C          C       0.23829   0.61339   0.68587   0.04644
C          C       0.35572   0.61379   0.80461   0.04639
C          C       0.28005   0.70004   0.67579  -0.14638
C          C       0.27703   0.56984   0.75150  -0.16207
C          C       0.40028   0.70020   0.77029  -0.15705
C          C       0.61837   0.35512   0.72889   0.37470
C          C       0.62194   0.23133   0.75774   0.37328
C          C       0.73904   0.35226   0.77406   0.37460
N          N       0.10150   0.57963   0.31511  -0.26193
N          N       0.46846   0.58515   0.17003  -0.27420
N          N       0.45583   0.91407   0.29858  -0.25909
N          N       0.71692   0.43028   0.24372  -0.42060
N          N       0.59499   0.30410   0.22343  -0.41942
N          N       0.72191   0.30128   0.27164  -0.42104
N          N       0.09284   0.52033   0.74250  -0.26522
N          N       0.41578   0.52219   0.76360  -0.27603
N          N       0.45573   0.88153   0.73990  -0.26864
N          N       0.69956   0.39817   0.74786  -0.41647
N          N       0.57753   0.27188   0.72777  -0.41688
N          N       0.70234   0.26846   0.78561  -0.41832

