data_crystal

_audit_creation_method 'AiiDA-DDEC plugin'

_cell_length_a        25.21338
_cell_length_b        25.37292
_cell_length_c         8.58721

_cell_angle_alpha     122.52830
_cell_angle_beta     82.78150
_cell_angle_gamma     119.94336

_symmetry_space_group_name_Hall 'P 1'
_symmetry_space_group_name_H-M  'P 1'

loop_
_symmetry_equiv_pos_as_xyz
 'x,y,z'

loop_
_atom_site_label
_atom_site_type_symbol
_atom_site_fract_x
_atom_site_fract_y
_atom_site_fract_z
_atom_site_charge
H          H       0.57064   0.69870   0.21048   0.11607
H          H       0.28568   0.83811   0.21347   0.11579
H          H       0.14571   0.41348   0.18306   0.10914
H          H       0.60195   0.89277   0.27506   0.11392
H          H       0.11344   0.70504   0.31349   0.11784
H          H       0.30372   0.39843   0.23996   0.11103
H          H       0.66942   0.76927   0.32552   0.06690
H          H       0.24366   0.89544   0.26964   0.05301
H          H       0.10606   0.34174   0.27289   0.04972
H          H       0.76556   0.76521   0.31022   0.10396
H          H       0.24742   0.99064   0.27853   0.09781
H          H       0.01365   0.25565   0.30425   0.09656
H          H       0.87754   0.81576   0.29348   0.10056
H          H       0.20025   0.05553   0.28703   0.09873
H          H       0.95466   0.14990   0.32581   0.09875
H          H       0.76130   0.92300   0.26027   0.11607
H          H       0.06909   0.81659   0.22498   0.11652
H          H       0.17405   0.23274   0.22629   0.11925
H          H       0.49253   0.85502   0.28198   0.09971
H          H       0.15597   0.63674   0.31530   0.10246
H          H       0.37532   0.51226   0.25676   0.09157
H          H       0.82388   0.98148   0.11841   0.08534
H          H       0.98170   0.79898   0.93428   0.07650
H          H       0.17503   0.12797   0.08181   0.07396
H          H       0.89989   0.04829   0.14585   0.09123
H          H       0.91920   0.80839   0.03646   0.08082
H          H       0.17038   0.06706   0.12727   0.08956
H          H       0.84265   0.10877   0.34662   0.12534
H          H       0.90762   0.69239   0.93932   0.12956
H          H       0.27095   0.19795   0.29252   0.12954
H          H       0.89854   0.12631   0.50200   0.12540
H          H       0.91244   0.74395   0.18542   0.11933
H          H       0.23696   0.17030   0.44866   0.11890
H          H       0.81884   0.05833   0.45135   0.12931
H          H       0.97753   0.73675   0.09337   0.13298
H          H       0.22391   0.23100   0.43810   0.14510
H          H       0.46003   0.57508   0.97959   0.06645
H          H       0.36362   0.82736   0.10756   0.08484
H          H       0.14717   0.46570   0.99155   0.06587
H          H       0.40106   0.53588   0.07839   0.09144
H          H       0.41980   0.80878   0.12067   0.09015
H          H       0.16751   0.55468   0.07639   0.08826
H          H       0.51829   0.63329   0.35351   0.13212
H          H       0.38864   0.91821   0.45566   0.12490
H          H       0.09359   0.46780   0.25500   0.11857
H          H       0.53310   0.58037   0.13169   0.12157
H          H       0.45732   0.94211   0.35984   0.12946
H          H       0.06745   0.49827   0.15472   0.12974
H          H       0.47432   0.53645   0.22649   0.12312
H          H       0.44518   0.90017   0.48357   0.12697
H          H       0.12181   0.56241   0.37214   0.12706
H          H       0.56128   0.71910   0.72928   0.11620
H          H       0.26871   0.84887   0.72982   0.11313
H          H       0.14249   0.41876   0.66261   0.10782
H          H       0.58749   0.90231   0.74215   0.11347
H          H       0.09589   0.70707   0.80510   0.11531
H          H       0.30718   0.42612   0.78413   0.11169
H          H       0.65978   0.79089   0.83760   0.06975
H          H       0.22433   0.89428   0.74134   0.05514
H          H       0.10756   0.35733   0.77451   0.04750
H          H       0.75416   0.78705   0.82961   0.10664
H          H       0.23116   0.98978   0.75084   0.09826
H          H       0.01573   0.27685   0.81380   0.09679
H          H       0.86634   0.83691   0.81889   0.10638
H          H       0.18793   0.05821   0.76192   0.09874
H          H       0.95284   0.17198   0.83767   0.10320
H          H       0.75102   0.93800   0.74533   0.11839
H          H       0.05158   0.82529   0.72681   0.11558
H          H       0.17018   0.24280   0.72391   0.12225
H          H       0.47823   0.86467   0.75369   0.09865
H          H       0.14005   0.63880   0.79804   0.10375
H          H       0.37480   0.54320   0.80825   0.09950
H          H       0.81498   0.01222   0.66106   0.09073
H          H       0.96490   0.80635   0.44649   0.07614
H          H       0.16693   0.13727   0.57890   0.07869
H          H       0.89164   0.07476   0.67666   0.08469
H          H       0.90475   0.82209   0.54790   0.08474
H          H       0.15799   0.07320   0.61817   0.08429
H          H       0.84610   0.14012   0.94193   0.12667
H          H       0.88513   0.70736   0.48267   0.12848
H          H       0.22336   0.17279   0.94368   0.11725
H          H       0.90695   0.14305   0.03861   0.12783
H          H       0.90022   0.76807   0.73036   0.12269
H          H       0.21804   0.23782   0.93356   0.13948
H          H       0.82756   0.07954   0.01252   0.12983
H          H       0.95815   0.74878   0.61698   0.12859
H          H       0.26238   0.19918   0.78910   0.12475
H          H       0.44679   0.59149   0.48533   0.06804
H          H       0.34539   0.83934   0.61617   0.08508
H          H       0.13237   0.46963   0.50724   0.06909
H          H       0.39069   0.55360   0.59244   0.09003
H          H       0.40231   0.81996   0.61998   0.08784
H          H       0.15042   0.55699   0.58099   0.08528
H          H       0.50144   0.64066   0.86239   0.12931
H          H       0.37262   0.92653   0.97005   0.12666
H          H       0.09485   0.48344   0.80095   0.12076
H          H       0.52833   0.60970   0.64730   0.11836
H          H       0.43837   0.95412   0.86663   0.12612
H          H       0.05921   0.50867   0.70894   0.12936
H          H       0.46763   0.54533   0.68820   0.12201
H          H       0.43249   0.91020   0.97964   0.12727
H          H       0.12301   0.57703   0.90408   0.13144
C          C       0.50718   0.81929   0.26577  -0.13165
C          C       0.18413   0.67776   0.28436  -0.12304
C          C       0.32585   0.49234   0.24025  -0.13752
C          C       0.46506   0.75246   0.24717  -0.00609
C          C       0.24484   0.69404   0.25110  -0.01398
C          C       0.30241   0.53078   0.23136   0.00201
C          C       0.49073   0.71145   0.23353   0.13267
C          C       0.28098   0.75529   0.23624   0.12456
C          C       0.23656   0.50135   0.21712   0.13999
C          C       0.55330   0.73272   0.22815  -0.27307
C          C       0.25718   0.79424   0.23515  -0.28864
C          C       0.19579   0.43602   0.20342  -0.26308
C          C       0.59408   0.79952   0.24541   0.21262
C          C       0.19490   0.77392   0.25684   0.20953
C          C       0.22065   0.39867   0.21299   0.21392
C          C       0.56980   0.84158   0.26310  -0.17640
C          C       0.15997   0.71663   0.28546  -0.17903
C          C       0.28571   0.42780   0.23038  -0.17885
C          C       0.68979   0.80834   0.28326   0.06712
C          C       0.19269   0.86540   0.25659   0.07229
C          C       0.13061   0.31270   0.24510   0.06922
C          C       0.75629   0.83972   0.27970   0.05538
C          C       0.16115   0.89885   0.24828   0.06540
C          C       0.09679   0.24886   0.25536   0.06748
C          C       0.78972   0.81049   0.29214  -0.15841
C          C       0.19702   0.96620   0.26462  -0.15166
C          C       0.03508   0.22523   0.28758  -0.16451
C          C       0.85291   0.83918   0.28409  -0.13150
C          C       0.16992   0.00271   0.26689  -0.13984
C          C       0.00117   0.16424   0.29718  -0.13963
C          C       0.88479   0.89963   0.26869  -0.00155
C          C       0.10480   0.97193   0.24875   0.01052
C          C       0.02786   0.12367   0.27354   0.01190
C          C       0.85121   0.93121   0.26895   0.11891
C          C       0.06914   0.90345   0.23175   0.12338
C          C       0.09169   0.15179   0.25503   0.11971
C          C       0.78782   0.90121   0.26852  -0.21784
C          C       0.09602   0.86726   0.23150  -0.18865
C          C       0.12571   0.21199   0.24247  -0.19768
C          C       0.95119   0.00228   0.26232   0.12192
C          C       0.00162   0.93873   0.24308   0.11869
C          C       0.06261   0.05130   0.25431   0.12099
C          C       0.94770   0.94320   0.25670  -0.14136
C          C       0.06088   0.99359   0.25026  -0.12798
C          C       0.00836   0.05787   0.26573  -0.13127
C          C       0.86775   0.02606   0.22084  -0.01697
C          C       0.96016   0.80692   0.05843  -0.00379
C          C       0.17208   0.11870   0.19418  -0.01414
C          C       0.85652   0.08322   0.39072  -0.40240
C          C       0.93892   0.74220   0.07300  -0.39961
C          C       0.22901   0.18305   0.35337  -0.40817
C          C       0.39838   0.71032   0.23719  -0.13510
C          C       0.28516   0.66703   0.23798  -0.13245
C          C       0.32806   0.59635   0.23152  -0.13253
C          C       0.38733   0.64748   0.22858   0.11386
C          C       0.34593   0.71688   0.23247   0.11298
C          C       0.27709   0.60607   0.22872   0.12173
C          C       0.44796   0.58208   0.11393  -0.00798
C          C       0.38804   0.82588   0.20078  -0.01713
C          C       0.16057   0.51909   0.12103  -0.01363
C          C       0.49608   0.58310   0.21232  -0.39885
C          C       0.42180   0.90100   0.38606  -0.40469
C          C       0.10823   0.51165   0.23353  -0.40248
C          C       0.49388   0.83106   0.74721  -0.13791
C          C       0.16817   0.68196   0.77438  -0.12943
C          C       0.32460   0.51595   0.77057  -0.12515
C          C       0.45284   0.76652   0.74140  -0.00969
C          C       0.22975   0.70090   0.74591  -0.01304
C          C       0.29738   0.54755   0.74201  -0.00739
C          C       0.48004   0.72807   0.73681   0.13545
C          C       0.26502   0.76417   0.73937   0.12395
C          C       0.23108   0.51263   0.71428   0.13802
C          C       0.54284   0.75035   0.73378  -0.27314
C          C       0.24021   0.80290   0.74327  -0.27985
C          C       0.19293   0.44598   0.69536  -0.27503
C          C       0.58232   0.81464   0.73810   0.21060
C          C       0.17735   0.78003   0.75906   0.20841
C          C       0.22111   0.41431   0.71966   0.21867
C          C       0.55652   0.85351   0.74252  -0.18023
C          C       0.14296   0.72065   0.77980  -0.17589
C          C       0.28694   0.45038   0.75787  -0.18681
C          C       0.67893   0.82663   0.78464   0.05817
C          C       0.17422   0.86795   0.74406   0.07470
C          C       0.13171   0.32800   0.74827   0.06637
C          C       0.74526   0.85733   0.77889   0.05391
C          C       0.14412   0.90292   0.73731   0.06578
C          C       0.09602   0.26444   0.75853   0.06470
C          C       0.77847   0.82987   0.80234  -0.16239
C          C       0.18125   0.96833   0.74447  -0.15382
C          C       0.03484   0.24400   0.79418  -0.16628
C          C       0.84168   0.85765   0.79543  -0.12470
C          C       0.15627   0.00700   0.74903  -0.13642
C          C       0.99849   0.18314   0.80382  -0.15055
C          C       0.87369   0.91520   0.76857   0.00143
C          C       0.09196   0.98063   0.74284   0.00997
C          C       0.02215   0.13935   0.77632   0.01179
C          C       0.84047   0.94545   0.75836   0.11364
C          C       0.05483   0.91332   0.73151   0.12395
C          C       0.08572   0.16474   0.75501   0.12405
C          C       0.77708   0.91651   0.75800  -0.22076
C          C       0.07961   0.87501   0.72924  -0.20065
C          C       0.12209   0.22455   0.74203  -0.19606
C          C       0.94193   0.01740   0.76158   0.12443
C          C       0.98996   0.95205   0.74603   0.12455
C          C       0.05314   0.06366   0.75450   0.12399
C          C       0.93709   0.95837   0.75962  -0.14526
C          C       0.04970   0.00496   0.74908  -0.12942
C          C       0.00020   0.07277   0.76776  -0.13637
C          C       0.86170   0.05029   0.75042  -0.01672
C          C       0.94439   0.81915   0.57320  -0.01082
C          C       0.16246   0.12639   0.68872  -0.01990
C          C       0.86060   0.10684   0.94765  -0.40189
C          C       0.92130   0.75818   0.60516  -0.40131
C          C       0.21971   0.18752   0.84814  -0.40213
C          C       0.38627   0.72396   0.73519  -0.13987
C          C       0.27179   0.67591   0.73270  -0.13071
C          C       0.31934   0.61128   0.73703  -0.13171
C          C       0.37749   0.66352   0.73435   0.11542
C          C       0.33222   0.72789   0.73063   0.10850
C          C       0.26617   0.61615   0.72475   0.11519
C          C       0.43742   0.59902   0.62137  -0.01345
C          C       0.37112   0.83713   0.70435  -0.01536
C          C       0.14885   0.52515   0.63192  -0.00791
C          C       0.48654   0.59891   0.71049  -0.39687
C          C       0.40579   0.91137   0.89112  -0.40418
C          C       0.10412   0.52358   0.76986  -0.40694
N          N       0.65784   0.82814   0.24332  -0.30981
N          N       0.16330   0.80563   0.25235  -0.30631
N          N       0.18660   0.33475   0.21136  -0.29805
N          N       0.89180   0.99326   0.26703  -0.05162
N          N       0.00521   0.88135   0.22067  -0.10763
N          N       0.11208   0.10881   0.24774  -0.05513
N          N       0.44350   0.64789   0.22058  -0.07733
N          N       0.34145   0.76832   0.22569  -0.05824
N          N       0.22183   0.54744   0.21602  -0.06706
N          N       0.64606   0.84328   0.73497  -0.29797
N          N       0.14531   0.81154   0.75516  -0.30904
N          N       0.18814   0.35019   0.71757  -0.30052
N          N       0.88226   0.00686   0.75518  -0.04747
N          N       0.99179   0.89426   0.72601  -0.10009
N          N       0.10360   0.11970   0.74566  -0.04788
N          N       0.43413   0.66568   0.73132  -0.07386
N          N       0.32596   0.77936   0.72990  -0.05666
N          N       0.21300   0.55516   0.70811  -0.05705

