data_crystal

_audit_creation_method 'AiiDA-DDEC plugin'

_cell_length_a        36.23497
_cell_length_b        36.06548
_cell_length_c         8.27373

_cell_angle_alpha     80.55690
_cell_angle_beta     115.92827
_cell_angle_gamma     119.67686

_symmetry_space_group_name_Hall 'P 1'
_symmetry_space_group_name_H-M  'P 1'

loop_
_symmetry_equiv_pos_as_xyz
 'x,y,z'

loop_
_atom_site_label
_atom_site_type_symbol
_atom_site_fract_x
_atom_site_fract_y
_atom_site_fract_z
_atom_site_charge
H          H       0.83418   0.38136   0.25639   0.11344
H          H       0.61412   0.45031   0.25759   0.12000
H          H       0.54979   0.16042   0.24805   0.11929
H          H       0.16273   0.60654   0.27967   0.11940
H          H       0.39526   0.55436   0.28222   0.11911
H          H       0.44276   0.83513   0.23009   0.11768
H          H       0.82997   0.49995   0.18785   0.10183
H          H       0.48767   0.33358   0.18597   0.10030
H          H       0.65687   0.16133   0.14595   0.10568
H          H       0.15738   0.48969   0.18928   0.09962
H          H       0.49373   0.67101   0.15539   0.10225
H          H       0.32492   0.83523   0.23406   0.10015
H          H       0.75352   0.46508   0.19817   0.09649
H          H       0.52144   0.29107   0.16941   0.09928
H          H       0.69805   0.24015   0.15994   0.10481
H          H       0.23406   0.52893   0.17976   0.10108
H          H       0.45250   0.70902   0.15355   0.09779
H          H       0.28414   0.75751   0.22781   0.09969
H          H       0.73741   0.28348   0.41010   0.08288
H          H       0.72835   0.44882   0.37837   0.08924
H          H       0.55412   0.26345   0.34455   0.08886
H          H       0.27377   0.71433   0.38588   0.08875
H          H       0.29931   0.55202   0.38858   0.08685
H          H       0.45288   0.72700   0.39805   0.08637
H          H       0.79054   0.33090   0.50005   0.08041
H          H       0.68899   0.45099   0.43865   0.07616
H          H       0.55027   0.21272   0.37810   0.08435
H          H       0.22805   0.67011   0.42219   0.08393
H          H       0.35007   0.54873   0.44435   0.08681
H          H       0.45445   0.76937   0.48437   0.07057
H          H       0.81859   0.31899   0.29473   0.13014
H          H       0.71406   0.51567   0.29745   0.13056
H          H       0.47357   0.20647   0.14701   0.13061
H          H       0.19270   0.71156   0.21819   0.12881
H          H       0.27605   0.48309   0.25760   0.13172
H          H       0.48337   0.81371   0.23020   0.14098
H          H       0.76441   0.27261   0.19076   0.12462
H          H       0.65982   0.48197   0.12301   0.14561
H          H       0.49839   0.18939   0.05097   0.13413
H          H       0.17348   0.66570   0.08868   0.14102
H          H       0.31650   0.50800   0.15821   0.13242
H          H       0.49861   0.77352   0.23760   0.11721
H          H       0.80069   0.27426   0.42159   0.13218
H          H       0.71284   0.49321   0.11988   0.11844
H          H       0.50124   0.24037   0.00716   0.12632
H          H       0.21770   0.71602   0.06826   0.12210
H          H       0.26653   0.51540   0.07269   0.12554
H          H       0.52204   0.80487   0.43519   0.13058
H          H       0.89550   0.49973   0.19776   0.06166
H          H       0.49057   0.40024   0.20703   0.06033
H          H       0.59296   0.09460   0.15138   0.06789
H          H       0.09651   0.48588   0.24001   0.05798
H          H       0.50505   0.61019   0.20470   0.06314
H          H       0.39053   0.90120   0.24739   0.06062
H          H       0.94472   0.41660   0.12767   0.11440
H          H       0.57384   0.53740   0.18770   0.11453
H          H       0.46353   0.04327   0.23945   0.11477
H          H       0.05071   0.56752   0.37175   0.11742
H          H       0.43840   0.47327   0.34728   0.11380
H          H       0.53231   0.95350   0.24476   0.11721
H          H       0.02431   0.45409   0.13778   0.10639
H          H       0.53460   0.57920   0.16611   0.10666
H          H       0.41773   0.96447   0.22749   0.10570
H          H       0.97068   0.53001   0.35942   0.10892
H          H       0.47756   0.43107   0.36612   0.10715
H          H       0.57775   0.03263   0.25202   0.11030
H          H       0.83886   0.38857   0.75312   0.11500
H          H       0.61255   0.44835   0.76198   0.11995
H          H       0.55708   0.16231   0.74154   0.11981
H          H       0.16896   0.61499   0.79287   0.11821
H          H       0.39259   0.55310   0.77463   0.11904
H          H       0.45075   0.83758   0.73455   0.11882
H          H       0.83351   0.50628   0.70784   0.10104
H          H       0.48821   0.32939   0.68841   0.10029
H          H       0.66762   0.16671   0.65329   0.10451
H          H       0.15874   0.49619   0.69546   0.09983
H          H       0.49527   0.66855   0.66077   0.10239
H          H       0.33177   0.84094   0.71035   0.10221
H          H       0.75550   0.46902   0.70354   0.09548
H          H       0.52389   0.28907   0.66883   0.09933
H          H       0.70542   0.24550   0.65501   0.10203
H          H       0.23524   0.53326   0.68446   0.09964
H          H       0.45626   0.70872   0.66041   0.09705
H          H       0.28995   0.76328   0.71141   0.10096
H          H       0.74192   0.28931   0.91036   0.08188
H          H       0.72784   0.45179   0.87410   0.08821
H          H       0.56078   0.26447   0.84827   0.08977
H          H       0.28012   0.72196   0.88267   0.08843
H          H       0.30065   0.55517   0.89057   0.08375
H          H       0.45769   0.72864   0.90284   0.08903
H          H       0.79400   0.33755   0.00177   0.07834
H          H       0.68689   0.45258   0.92943   0.07475
H          H       0.55978   0.21484   0.88809   0.08509
H          H       0.23509   0.67875   0.92663   0.08301
H          H       0.35066   0.55096   0.94199   0.08617
H          H       0.46186   0.77343   0.98372   0.07317
H          H       0.80855   0.28213   0.94407   0.13291
H          H       0.70915   0.51618   0.78005   0.13043
H          H       0.48039   0.20494   0.67471   0.12973
H          H       0.20143   0.72164   0.71640   0.12928
H          H       0.27531   0.48520   0.76591   0.13073
H          H       0.52849   0.80364   0.92906   0.13228
H          H       0.82619   0.32601   0.81311   0.13126
H          H       0.65596   0.48030   0.60747   0.14639
H          H       0.50264   0.18689   0.56952   0.13549
H          H       0.17769   0.67203   0.60236   0.13830
H          H       0.31417   0.50773   0.65940   0.13121
H          H       0.49047   0.81445   0.72822   0.14116
H          H       0.77352   0.27804   0.71035   0.12126
H          H       0.71016   0.49363   0.60869   0.11610
H          H       0.50295   0.23679   0.51816   0.12499
H          H       0.22146   0.71895   0.55944   0.12088
H          H       0.26493   0.51617   0.57652   0.12538
H          H       0.50168   0.77174   0.72940   0.12021
H          H       0.90096   0.50785   0.72093   0.06236
H          H       0.48914   0.39498   0.71616   0.05995
H          H       0.60603   0.09925   0.66693   0.06639
H          H       0.10000   0.49417   0.75067   0.06101
H          H       0.50327   0.60661   0.70144   0.06306
H          H       0.39724   0.90609   0.70950   0.06167
H          H       0.94690   0.42689   0.61165   0.11701
H          H       0.57392   0.53370   0.70848   0.11462
H          H       0.48488   0.04772   0.82254   0.11347
H          H       0.05668   0.57357   0.90335   0.11630
H          H       0.43369   0.46913   0.83668   0.11323
H          H       0.53104   0.95560   0.66081   0.11539
H          H       0.02644   0.46529   0.61948   0.10445
H          H       0.53554   0.57633   0.68406   0.10694
H          H       0.44160   0.96895   0.83170   0.10780
H          H       0.97673   0.53516   0.89386   0.10698
H          H       0.47194   0.42606   0.85762   0.10506
H          H       0.57510   0.03415   0.65721   0.10774
C          C       0.76989   0.44592   0.21046  -0.13506
C          C       0.54313   0.32536   0.19349  -0.14278
C          C       0.66665   0.22364   0.18385  -0.13049
C          C       0.22064   0.54653   0.21038  -0.13345
C          C       0.44006   0.67576   0.18481  -0.13530
C          C       0.31870   0.77298   0.23078  -0.14415
C          C       0.74741   0.40160   0.22734   0.00992
C          C       0.58974   0.34557   0.21420   0.01270
C          C       0.64815   0.24657   0.21538   0.00408
C          C       0.24590   0.59140   0.23914   0.00433
C          C       0.39976   0.65370   0.21818   0.00701
C          C       0.34043   0.74936   0.23426   0.01031
C          C       0.77123   0.37859   0.23996   0.12716
C          C       0.61380   0.39125   0.22830   0.12158
C          C       0.60453   0.22294   0.22985   0.11316
C          C       0.22314   0.61244   0.25635   0.11815
C          C       0.38276   0.60906   0.24410   0.12192
C          C       0.38538   0.77278   0.23010   0.12100
C          C       0.81553   0.39851   0.24306  -0.20053
C          C       0.59529   0.41563   0.24196  -0.20249
C          C       0.58206   0.17867   0.22998  -0.21238
C          C       0.17968   0.59061   0.26228  -0.19989
C          C       0.40664   0.58782   0.25355  -0.21279
C          C       0.40852   0.81698   0.23188  -0.19677
C          C       0.83699   0.44280   0.22293   0.06552
C          C       0.54952   0.39456   0.22964   0.06084
C          C       0.60185   0.15633   0.20307   0.05819
C          C       0.15629   0.54568   0.24362   0.06734
C          C       0.44757   0.61072   0.22388   0.05568
C          C       0.38676   0.83995   0.23482   0.06026
C          C       0.81350   0.46581   0.20604  -0.15618
C          C       0.52361   0.34959   0.20064  -0.15479
C          C       0.64333   0.17915   0.17577  -0.15182
C          C       0.17684   0.52436   0.21357  -0.16036
C          C       0.46327   0.65433   0.18646  -0.15797
C          C       0.34179   0.81738   0.23286  -0.14780
C          C       0.88253   0.46532   0.21714   0.07389
C          C       0.52808   0.41874   0.23825   0.06899
C          C       0.57928   0.10984   0.19856   0.06909
C          C       0.11084   0.52080   0.24968   0.07342
C          C       0.47303   0.58959   0.22584   0.06201
C          C       0.40981   0.88634   0.23836   0.07088
C          C       0.95137   0.47054   0.23808   0.19606
C          C       0.52794   0.48127   0.27428   0.20335
C          C       0.52310   0.04360   0.24233   0.20025
C          C       0.04390   0.51373   0.25963   0.19257
C          C       0.48321   0.52886   0.25496   0.19185
C          C       0.47205   0.95304   0.23557   0.19797
C          C       0.70284   0.37033   0.23086  -0.13163
C          C       0.62250   0.33243   0.22357  -0.13779
C          C       0.66103   0.29111   0.22775  -0.13861
C          C       0.29060   0.62470   0.24507  -0.13168
C          C       0.36759   0.66455   0.22933  -0.13771
C          C       0.32900   0.70449   0.24068  -0.13376
C          C       0.70087   0.32972   0.23624   0.12228
C          C       0.66390   0.37092   0.22982   0.12282
C          C       0.62282   0.29299   0.23162   0.12000
C          C       0.29182   0.66493   0.25193   0.11638
C          C       0.33007   0.62556   0.24518   0.12593
C          C       0.36687   0.70304   0.23308   0.12273
C          C       0.76481   0.31012   0.37637  -0.00874
C          C       0.69480   0.44857   0.32246  -0.01792
C          C       0.54928   0.23665   0.27775  -0.01455
C          C       0.24081   0.68561   0.31808  -0.01938
C          C       0.32073   0.55097   0.33083  -0.02023
C          C       0.45058   0.75659   0.36366  -0.01101
C          C       0.78826   0.29330   0.31539  -0.40407
C          C       0.69519   0.48667   0.20831  -0.40598
C          C       0.50296   0.21721   0.11067  -0.40557
C          C       0.20422   0.69536   0.16389  -0.40673
C          C       0.29337   0.51229   0.19634  -0.40477
C          C       0.49038   0.78885   0.31141  -0.39923
C          C       0.96842   0.44955   0.18288  -0.14768
C          C       0.54443   0.52392   0.22424  -0.14906
C          C       0.47790   0.02310   0.23817  -0.14327
C          C       0.02695   0.53459   0.31615  -0.14282
C          C       0.46756   0.48660   0.30926  -0.14082
C          C       0.51760   0.97362   0.24320  -0.14206
C          C       0.01341   0.47061   0.19154  -0.17019
C          C       0.52220   0.54705   0.21240  -0.16412
C          C       0.45263   0.97891   0.23249  -0.16951
C          C       0.98181   0.51359   0.30641  -0.17196
C          C       0.48938   0.46317   0.31903  -0.17810
C          C       0.54275   0.01787   0.24664  -0.17047
C          C       0.77266   0.45057   0.71630  -0.13672
C          C       0.54469   0.32346   0.69226  -0.14265
C          C       0.67401   0.22821   0.67879  -0.12696
C          C       0.22272   0.55181   0.71454  -0.12842
C          C       0.44227   0.67518   0.68699  -0.13689
C          C       0.32490   0.77812   0.71848  -0.14197
C          C       0.75037   0.40595   0.72634   0.01037
C          C       0.59127   0.34494   0.71114   0.01234
C          C       0.65396   0.25010   0.70635  -0.00210
C          C       0.24890   0.59665   0.74208   0.00336
C          C       0.40152   0.65417   0.71703   0.00804
C          C       0.34640   0.75371   0.72970   0.01053
C          C       0.77513   0.38394   0.73772   0.12667
C          C       0.61405   0.39058   0.72664   0.12215
C          C       0.61047   0.22542   0.72123   0.11592
C          C       0.22758   0.61890   0.76174   0.11564
C          C       0.38278   0.60931   0.73927   0.12273
C          C       0.39185   0.77611   0.72989   0.12200
C          C       0.81969   0.40496   0.74315  -0.19623
C          C       0.59450   0.41370   0.74329  -0.20444
C          C       0.58927   0.18124   0.72339  -0.21207
C          C       0.18448   0.59818   0.77071  -0.20395
C          C       0.40537   0.58677   0.74826  -0.21177
C          C       0.41597   0.82026   0.73159  -0.20084
C          C       0.84108   0.44960   0.73130   0.06515
C          C       0.54880   0.39143   0.73217   0.06106
C          C       0.61062   0.15996   0.70119   0.05964
C          C       0.15988   0.55328   0.75041   0.06747
C          C       0.44677   0.60863   0.72160   0.05296
C          C       0.39429   0.84408   0.72574   0.05996
C          C       0.81701   0.47177   0.71810  -0.15945
C          C       0.52409   0.34644   0.70178  -0.15578
C          C       0.65236   0.18376   0.67601  -0.15703
C          C       0.17912   0.53084   0.71906  -0.15582
C          C       0.46422   0.65253   0.68797  -0.15619
C          C       0.34862   0.82243   0.71677  -0.14931
C          C       0.88717   0.47304   0.73040   0.06800
C          C       0.52641   0.41442   0.74412   0.06927
C          C       0.58951   0.11360   0.70106   0.06596
C          C       0.11448   0.52914   0.75702   0.07423
C          C       0.47136   0.58654   0.72383   0.06500
C          C       0.41793   0.89043   0.72470   0.07042
C          C       0.95576   0.47841   0.74783   0.19395
C          C       0.52525   0.47680   0.77978   0.20182
C          C       0.53242   0.04671   0.73780   0.19397
C          C       0.04772   0.52233   0.76525   0.19172
C          C       0.48101   0.52538   0.75694   0.19787
C          C       0.48249   0.95644   0.74045   0.19828
C          C       0.70552   0.37364   0.72528  -0.13198
C          C       0.62510   0.33346   0.71824  -0.13712
C          C       0.66544   0.29427   0.71819  -0.13959
C          C       0.29369   0.62893   0.74568  -0.13401
C          C       0.37062   0.66656   0.72964  -0.13757
C          C       0.33406   0.70863   0.73956  -0.13577
C          C       0.70465   0.33357   0.72787   0.12345
C          C       0.66589   0.37283   0.72526   0.12254
C          C       0.62674   0.29478   0.72397   0.12049
C          C       0.29638   0.66984   0.75297   0.11909
C          C       0.33216   0.62825   0.74365   0.12641
C          C       0.37155   0.70586   0.73465   0.12068
C          C       0.76972   0.31608   0.87928  -0.00673
C          C       0.69355   0.45010   0.81553  -0.01698
C          C       0.55590   0.23735   0.78337  -0.01507
C          C       0.24707   0.69298   0.81953  -0.01886
C          C       0.32102   0.55309   0.83008  -0.01633
C          C       0.45635   0.75859   0.86435  -0.01239
C          C       0.79574   0.29987   0.83168  -0.40522
C          C       0.69192   0.48686   0.69509  -0.40478
C          C       0.50774   0.21533   0.62671  -0.40743
C          C       0.20992   0.70197   0.66502  -0.40421
C          C       0.29221   0.51347   0.69950  -0.40413
C          C       0.49593   0.78867   0.80705  -0.40302
C          C       0.97157   0.45874   0.67838  -0.14937
C          C       0.54329   0.52002   0.73734  -0.14475
C          C       0.49415   0.02700   0.78504  -0.14624
C          C       0.03203   0.54171   0.83679  -0.14720
C          C       0.46387   0.48256   0.80497  -0.14229
C          C       0.52141   0.97619   0.69681  -0.14522
C          C       0.01637   0.48030   0.68486  -0.16989
C          C       0.52145   0.54365   0.72386  -0.16574
C          C       0.46976   0.98288   0.78780  -0.17370
C          C       0.98714   0.52030   0.82940  -0.17582
C          C       0.48533   0.45865   0.81608  -0.17517
C          C       0.54586   0.02028   0.69473  -0.17126
N          N       0.90625   0.44650   0.23107  -0.30042
N          N       0.55106   0.45977   0.27352  -0.29503
N          N       0.54461   0.08823   0.24439  -0.30798
N          N       0.08898   0.53845   0.26652  -0.29992
N          N       0.45852   0.54921   0.25130  -0.30264
N          N       0.45028   0.90831   0.23251  -0.30961
N          N       0.74301   0.33475   0.24850  -0.08625
N          N       0.65798   0.40611   0.23388  -0.06100
N          N       0.58991   0.25136   0.23971  -0.05495
N          N       0.25113   0.65653   0.26360  -0.05699
N          N       0.34033   0.59242   0.25723  -0.05224
N          N       0.40190   0.74454   0.23148  -0.09739
N          N       0.91037   0.45428   0.73748  -0.29438
N          N       0.54853   0.45546   0.77875  -0.29636
N          N       0.55365   0.09138   0.73952  -0.31078
N          N       0.09268   0.54718   0.77110  -0.30135
N          N       0.45646   0.54616   0.75086  -0.30623
N          N       0.46034   0.91177   0.73763  -0.30026
N          N       0.74755   0.33968   0.74324  -0.09470
N          N       0.65839   0.40692   0.73137  -0.05956
N          N       0.59466   0.25274   0.73210  -0.05597
N          N       0.25651   0.66278   0.76792  -0.05765
N          N       0.34052   0.59395   0.75212  -0.05483
N          N       0.40753   0.74698   0.73450  -0.09492

