data_crystal

_audit_creation_method 'AiiDA-DDEC plugin'

_cell_length_a        29.42784
_cell_length_b        29.45615
_cell_length_c         8.04776

_cell_angle_alpha     93.16583
_cell_angle_beta     61.59777
_cell_angle_gamma     120.05139

_symmetry_space_group_name_Hall 'P 1'
_symmetry_space_group_name_H-M  'P 1'

loop_
_symmetry_equiv_pos_as_xyz
 'x,y,z'

loop_
_atom_site_label
_atom_site_type_symbol
_atom_site_fract_x
_atom_site_fract_y
_atom_site_fract_z
_atom_site_charge
H          H       0.23602   0.70371   0.21074   0.11555
H          H       0.30289   0.53177   0.21751   0.11442
H          H       0.46375   0.76673   0.28744   0.11407
H          H       0.76669   0.30501   0.29287   0.11549
H          H       0.68791   0.46563   0.26648   0.11484
H          H       0.53444   0.22541   0.23070   0.11375
H          H       0.13888   0.66681   0.21062   0.10787
H          H       0.34349   0.47336   0.19484   0.10858
H          H       0.52172   0.86280   0.30148   0.10867
H          H       0.86411   0.34699   0.29580   0.10862
H          H       0.64347   0.51991   0.27825   0.10824
H          H       0.47976   0.12818   0.22666   0.10898
H          H       0.10524   0.50717   0.27371   0.11294
H          H       0.48769   0.60027   0.26649   0.11185
H          H       0.39603   0.88910   0.25905   0.11264
H          H       0.88979   0.50315   0.22352   0.11284
H          H       0.50165   0.38554   0.21697   0.11275
H          H       0.61069   0.11189   0.27498   0.11446
H          H       0.20334   0.54474   0.27096   0.11508
H          H       0.44752   0.65909   0.28328   0.11306
H          H       0.33769   0.79235   0.24789   0.11190
H          H       0.79115   0.46044   0.22492   0.11361
H          H       0.54593   0.33107   0.20954   0.11377
H          H       0.66624   0.21015   0.27337   0.11124
H          H       0.04722   0.59226   0.22725   0.08028
H          H       0.41921   0.45909   0.18409   0.08552
H          H       0.53552   0.95118   0.30956   0.08380
H          H       0.95293   0.42281   0.27484   0.07977
H          H       0.56790   0.52978   0.28226   0.08368
H          H       0.47058   0.04296   0.22179   0.08303
H          H       0.23523   0.69667   0.70389   0.11631
H          H       0.31433   0.53581   0.71629   0.11490
H          H       0.46398   0.77307   0.78515   0.11421
H          H       0.76425   0.29737   0.79562   0.11536
H          H       0.69906   0.46963   0.76795   0.11473
H          H       0.53331   0.23145   0.73459   0.11376
H          H       0.13758   0.65521   0.70293   0.10784
H          H       0.35931   0.48134   0.69414   0.10874
H          H       0.51798   0.86983   0.79669   0.10949
H          H       0.86151   0.33487   0.79587   0.10753
H          H       0.65960   0.52825   0.77864   0.10795
H          H       0.47305   0.13418   0.73639   0.10907
H          H       0.10979   0.49832   0.78162   0.11189
H          H       0.50095   0.61358   0.76189   0.11232
H          H       0.38420   0.88595   0.76875   0.11430
H          H       0.89499   0.49430   0.72691   0.11373
H          H       0.51506   0.39960   0.71282   0.11239
H          H       0.60103   0.10960   0.76944   0.11308
H          H       0.20873   0.54055   0.77751   0.11399
H          H       0.45612   0.66839   0.78009   0.11329
H          H       0.32969   0.78842   0.76070   0.11168
H          H       0.79708   0.45621   0.72816   0.11443
H          H       0.55398   0.34053   0.70804   0.11337
H          H       0.66159   0.20740   0.76547   0.11245
H          H       0.04700   0.57912   0.73168   0.08060
H          H       0.43509   0.47056   0.68839   0.08471
H          H       0.52805   0.95554   0.80022   0.08209
H          H       0.95354   0.40991   0.77522   0.08057
H          H       0.58460   0.54211   0.78355   0.08425
H          H       0.45861   0.04564   0.73480   0.08375
C          C       0.22544   0.62643   0.24107   0.00615
C          C       0.37297   0.59901   0.25068   0.00510
C          C       0.39715   0.77375   0.26745   0.00439
C          C       0.77326   0.38023   0.25807   0.00385
C          C       0.61954   0.39508   0.23754   0.00505
C          C       0.60366   0.22366   0.25191   0.00569
C          C       0.20703   0.66086   0.22443  -0.10225
C          C       0.34309   0.54617   0.22857  -0.10009
C          C       0.44948   0.79390   0.28089  -0.10114
C          C       0.79406   0.34823   0.27762  -0.09869
C          C       0.64758   0.44878   0.25413  -0.09699
C          C       0.55057   0.20019   0.24086  -0.10201
C          C       0.15284   0.64005   0.22524  -0.13503
C          C       0.36597   0.51388   0.21608  -0.12912
C          C       0.48172   0.84748   0.28795  -0.12902
C          C       0.84835   0.37182   0.27796  -0.13157
C          C       0.62258   0.47874   0.26077  -0.12507
C          C       0.52015   0.14591   0.23950  -0.12676
C          C       0.11571   0.58441   0.24225   0.07363
C          C       0.41855   0.53317   0.22826   0.06582
C          C       0.46271   0.88231   0.27999   0.06463
C          C       0.88336   0.42789   0.25871   0.07468
C          C       0.56944   0.45618   0.24946   0.06871
C          C       0.54142   0.11347   0.25211   0.06409
C          C       0.13445   0.55008   0.25892  -0.10252
C          C       0.44774   0.58594   0.25380  -0.10318
C          C       0.41013   0.86186   0.26661  -0.11303
C          C       0.86235   0.45990   0.23904  -0.10605
C          C       0.54202   0.40255   0.22935  -0.10628
C          C       0.59461   0.13714   0.26413  -0.11181
C          C       0.18856   0.57082   0.25736  -0.09455
C          C       0.42539   0.61838   0.26375  -0.09955
C          C       0.37783   0.80841   0.26069  -0.09627
C          C       0.80797   0.43633   0.23982  -0.09052
C          C       0.56668   0.37247   0.22446  -0.10207
C          C       0.62537   0.19147   0.26323  -0.09735
C          C       0.28216   0.64783   0.24464   0.37020
C          C       0.35095   0.63449   0.25343   0.37415
C          C       0.36296   0.71718   0.25805   0.37038
C          C       0.71603   0.35526   0.25502   0.37053
C          C       0.64403   0.36235   0.24218   0.37405
C          C       0.63605   0.28132   0.25241   0.37330
C          C       0.05962   0.56381   0.24072   0.04047
C          C       0.44069   0.49814   0.21836   0.04355
C          C       0.49723   0.93814   0.28719   0.04043
C          C       0.93958   0.45043   0.26087   0.04733
C          C       0.54537   0.48940   0.25776   0.04049
C          C       0.50816   0.05706   0.24895   0.04291
C          C       0.22749   0.62101   0.74234   0.00605
C          C       0.38238   0.60529   0.74999   0.00585
C          C       0.39384   0.77501   0.77121   0.00602
C          C       0.77494   0.37457   0.76128   0.00483
C          C       0.62871   0.40148   0.73843   0.00619
C          C       0.60107   0.22533   0.74998   0.00656
C          C       0.20730   0.65339   0.72127  -0.09995
C          C       0.35473   0.55216   0.72788  -0.09857
C          C       0.44720   0.79824   0.78061  -0.10209
C          C       0.79330   0.34033   0.78039  -0.10276
C          C       0.65910   0.45488   0.75517  -0.09996
C          C       0.54753   0.20440   0.74307  -0.10136
C          C       0.15288   0.63009   0.72188  -0.12975
C          C       0.38003   0.52206   0.71551  -0.12413
C          C       0.47718   0.85218   0.78619  -0.12640
C          C       0.84752   0.36146   0.77969  -0.13347
C          C       0.63684   0.48730   0.76115  -0.12830
C          C       0.51401   0.15015   0.74483  -0.12901
C          C       0.11718   0.57396   0.74356   0.07340
C          C       0.43316   0.54398   0.72643   0.06778
C          C       0.45481   0.88437   0.78160   0.06363
C          C       0.88467   0.41722   0.76098   0.07292
C          C       0.58439   0.46752   0.74782   0.06505
C          C       0.53289   0.11541   0.75526   0.06459
C          C       0.13774   0.54162   0.76393  -0.10450
C          C       0.46046   0.59716   0.75062  -0.10740
C          C       0.40098   0.86079   0.77349  -0.11251
C          C       0.86586   0.45132   0.74262  -0.10417
C          C       0.55484   0.41425   0.72680  -0.10442
C          C       0.58680   0.13669   0.76131  -0.11239
C          C       0.19227   0.56491   0.76198  -0.09209
C          C       0.43549   0.62739   0.76138  -0.09947
C          C       0.37088   0.80688   0.76888  -0.09541
C          C       0.81183   0.43027   0.74338  -0.09275
C          C       0.57653   0.38169   0.72348  -0.09947
C          C       0.62033   0.19077   0.75876  -0.09685
C          C       0.28448   0.64544   0.74650   0.36960
C          C       0.35695   0.63789   0.75391   0.37317
C          C       0.36286   0.71812   0.76054   0.37094
C          C       0.71821   0.35284   0.75739   0.37006
C          C       0.64989   0.36587   0.74341   0.37226
C          C       0.63648   0.28260   0.75072   0.37185
C          C       0.06073   0.55159   0.74296   0.04632
C          C       0.45728   0.51063   0.71541   0.04061
C          C       0.48764   0.94054   0.78784   0.04409
C          C       0.94086   0.43818   0.76224   0.04131
C          C       0.56242   0.50243   0.75395   0.04509
C          C       0.49699   0.05891   0.75693   0.04123
N          N       0.02476   0.51281   0.25364  -0.17155
N          N       0.48481   0.51232   0.25070  -0.18293
N          N       0.48328   0.97214   0.26674  -0.17148
N          N       0.97374   0.50157   0.24794  -0.17694
N          N       0.49876   0.47295   0.23637  -0.18176
N          N       0.52181   0.02351   0.27641  -0.17418
N          N       0.31272   0.70022   0.24776  -0.41111
N          N       0.29957   0.61345   0.24640  -0.40902
N          N       0.38403   0.68597   0.26089  -0.41070
N          N       0.68724   0.30205   0.26004  -0.41028
N          N       0.69624   0.38706   0.24611  -0.40928
N          N       0.61229   0.30965   0.24458  -0.41378
N          N       0.02680   0.50053   0.75402  -0.17731
N          N       0.50352   0.52678   0.73859  -0.18218
N          N       0.47078   0.97305   0.77767  -0.17363
N          N       0.97555   0.48919   0.74966  -0.17235
N          N       0.51745   0.48744   0.72516  -0.18222
N          N       0.51009   0.02474   0.78303  -0.17281
N          N       0.31216   0.69804   0.75038  -0.40935
N          N       0.30507   0.61372   0.74806  -0.40797
N          N       0.38739   0.68986   0.76137  -0.41381
N          N       0.68705   0.30006   0.75948  -0.41059
N          N       0.70133   0.38728   0.75040  -0.40849
N          N       0.61595   0.31385   0.74264  -0.41123

