data_crystal

_audit_creation_method 'AiiDA-DDEC plugin'

_cell_length_a        30.12318
_cell_length_b        28.82746
_cell_length_c         7.96225

_cell_angle_alpha     89.92024
_cell_angle_beta     92.09879
_cell_angle_gamma     119.06008

_symmetry_space_group_name_Hall 'P 1'
_symmetry_space_group_name_H-M  'P 1'

loop_
_symmetry_equiv_pos_as_xyz
 'x,y,z'

loop_
_atom_site_label
_atom_site_type_symbol
_atom_site_fract_x
_atom_site_fract_y
_atom_site_fract_z
_atom_site_charge
H          H       0.21683   0.67131   0.03431   0.10760
H          H       0.78385   0.32721   0.46346   0.10766
H          H       0.10765   0.50154   0.31559   0.11210
H          H       0.89172   0.49755   0.18233   0.11257
H          H       0.20142   0.54089   0.33713   0.10746
H          H       0.79788   0.45783   0.16439   0.11116
H          H       0.03819   0.56118   0.06933   0.08560
H          H       0.96221   0.43805   0.42264   0.08578
H          H       0.28156   0.71511   0.23166   0.11082
H          H       0.71689   0.28332   0.27504   0.11062
H          H       0.12328   0.63089   0.00742   0.10912
H          H       0.87754   0.36768   0.48446   0.10814
H          H       0.32129   0.54160   0.41411   0.10345
H          H       0.68341   0.46140   0.08897   0.10279
H          H       0.48917   0.60728   0.16036   0.11385
H          H       0.51234   0.39613   0.31717   0.11461
H          H       0.44434   0.66130   0.14239   0.11875
H          H       0.55509   0.34039   0.33799   0.11872
H          H       0.43987   0.47912   0.40206   0.08274
H          H       0.56634   0.52730   0.09293   0.08379
H          H       0.27824   0.56420   0.21114   0.11482
H          H       0.72267   0.43530   0.28809   0.11312
H          H       0.36706   0.48985   0.44099   0.10756
H          H       0.64001   0.51523   0.06090   0.10733
H          H       0.49013   0.88407   0.17887   0.11262
H          H       0.50545   0.11717   0.30786   0.11449
H          H       0.44674   0.78494   0.15356   0.11889
H          H       0.55009   0.21640   0.32989   0.11956
H          H       0.36856   0.87302   0.47254   0.10752
H          H       0.63101   0.12493   0.04486   0.10755
H          H       0.32400   0.77521   0.43811   0.10241
H          H       0.67603   0.22283   0.07354   0.10287
H          H       0.44172   0.96002   0.43126   0.08551
H          H       0.55713   0.03920   0.08040   0.08350
H          H       0.21606   0.67344   0.53185   0.10749
H          H       0.78295   0.32879   0.96216   0.10831
H          H       0.10643   0.50133   0.80106   0.11370
H          H       0.88974   0.49899   0.67871   0.11269
H          H       0.20033   0.54071   0.82284   0.10836
H          H       0.79557   0.45853   0.66210   0.10804
H          H       0.03711   0.56300   0.56607   0.08572
H          H       0.96086   0.43976   0.91759   0.08412
H          H       0.28197   0.71618   0.72533   0.11121
H          H       0.71749   0.28478   0.76637   0.11087
H          H       0.12244   0.63396   0.51003   0.10903
H          H       0.87676   0.36971   0.98117   0.10899
H          H       0.31759   0.54118   0.91849   0.10277
H          H       0.67522   0.45532   0.58035   0.10286
H          H       0.48556   0.60229   0.66989   0.11344
H          H       0.50939   0.39248   0.84573   0.11350
H          H       0.44289   0.65837   0.64796   0.11885
H          H       0.55443   0.33913   0.86875   0.11819
H          H       0.43236   0.47348   0.90777   0.08332
H          H       0.55744   0.51881   0.59235   0.08235
H          H       0.27671   0.56425   0.70623   0.11455
H          H       0.71949   0.43484   0.79053   0.11415
H          H       0.36149   0.48760   0.94988   0.10673
H          H       0.62922   0.50655   0.54860   0.10642
H          H       0.49342   0.88137   0.68376   0.11436
H          H       0.50931   0.11526   0.82338   0.11289
H          H       0.44767   0.78179   0.66273   0.11824
H          H       0.55234   0.21437   0.84590   0.12016
H          H       0.37199   0.87513   0.96652   0.10794
H          H       0.63053   0.12634   0.52689   0.10639
H          H       0.32552   0.77680   0.93833   0.10102
H          H       0.67455   0.22427   0.55811   0.09938
H          H       0.44180   0.95918   0.91581   0.08271
H          H       0.56168   0.03991   0.58128   0.08329
C          C       0.21596   0.60942   0.18940   0.06301
C          C       0.78393   0.38908   0.31000   0.06430
C          C       0.19305   0.63427   0.09687  -0.13184
C          C       0.80726   0.36418   0.39999  -0.13234
C          C       0.14041   0.61138   0.08102  -0.12069
C          C       0.85995   0.38707   0.41268  -0.11851
C          C       0.10892   0.56351   0.16108   0.05992
C          C       0.89106   0.43500   0.33232   0.05790
C          C       0.13183   0.53798   0.25098  -0.10393
C          C       0.86780   0.46069   0.24550  -0.10146
C          C       0.18433   0.56025   0.26282  -0.12815
C          C       0.81528   0.43832   0.23638  -0.13173
C          C       0.27162   0.63559   0.21669   0.10932
C          C       0.72819   0.36329   0.28438   0.10919
C          C       0.05422   0.54288   0.15511   0.04056
C          C       0.94567   0.45536   0.33481   0.03969
C          C       0.30010   0.69082   0.23619  -0.23741
C          C       0.69892   0.30811   0.26633  -0.23748
C          C       0.37929   0.60425   0.27241   0.03717
C          C       0.62269   0.39766   0.21970   0.03591
C          C       0.35759   0.55561   0.35570  -0.13526
C          C       0.64633   0.44727   0.14195  -0.13619
C          C       0.38333   0.52667   0.37162  -0.12512
C          C       0.62189   0.47755   0.12543  -0.12674
C          C       0.43086   0.54484   0.30019   0.06026
C          C       0.57358   0.45978   0.19059   0.06129
C          C       0.45265   0.59373   0.21679  -0.10198
C          C       0.54967   0.40977   0.26692  -0.10142
C          C       0.42766   0.62345   0.20597  -0.10767
C          C       0.57351   0.37891   0.27881  -0.10590
C          C       0.35133   0.63441   0.25577   0.21477
C          C       0.64936   0.36619   0.23931   0.21622
C          C       0.45549   0.51235   0.31529   0.04095
C          C       0.55004   0.49343   0.17721   0.04042
C          C       0.29824   0.60712   0.22877  -0.23509
C          C       0.70228   0.39244   0.27010  -0.23542
C          C       0.38179   0.77357   0.29000   0.03836
C          C       0.61678   0.22619   0.20855   0.03700
C          C       0.42982   0.80458   0.22258  -0.10784
C          C       0.56755   0.19597   0.26849  -0.10690
C          C       0.45408   0.85960   0.23705  -0.10300
C          C       0.54263   0.14087   0.25568  -0.10257
C          C       0.43192   0.88516   0.32450   0.05995
C          C       0.56559   0.11438   0.17811   0.06268
C          C       0.38514   0.85392   0.39914  -0.12259
C          C       0.61362   0.14481   0.11020  -0.12503
C          C       0.36003   0.79902   0.37905  -0.13962
C          C       0.63906   0.19978   0.12764  -0.13603
C          C       0.35300   0.71535   0.26388   0.21599
C          C       0.64617   0.28443   0.23444   0.21543
C          C       0.45489   0.94264   0.33595   0.04123
C          C       0.54201   0.05683   0.16790   0.03862
C          C       0.21516   0.61059   0.68216   0.06263
C          C       0.78244   0.39014   0.80783   0.06329
C          C       0.19225   0.63616   0.59333  -0.13127
C          C       0.80618   0.36565   0.89781  -0.13237
C          C       0.13956   0.61370   0.57969  -0.11916
C          C       0.85892   0.38885   0.90937  -0.11929
C          C       0.10795   0.56528   0.65693   0.05895
C          C       0.88970   0.43680   0.82848   0.05918
C          C       0.13078   0.53871   0.74117  -0.10225
C          C       0.86598   0.46213   0.74209  -0.10267
C          C       0.18332   0.56085   0.75212  -0.12924
C          C       0.81339   0.43938   0.73373  -0.12846
C          C       0.27087   0.63622   0.71018   0.11019
C          C       0.72665   0.36375   0.78335   0.10984
C          C       0.05328   0.54515   0.65329   0.04026
C          C       0.94444   0.45764   0.83167   0.04152
C          C       0.29997   0.69138   0.73151  -0.23693
C          C       0.69845   0.30859   0.76236  -0.23700
C          C       0.37677   0.60262   0.77659   0.03646
C          C       0.61849   0.39447   0.73023   0.03790
C          C       0.35395   0.55427   0.86135  -0.13647
C          C       0.63941   0.44206   0.64139  -0.13750
C          C       0.37854   0.52425   0.87963  -0.12587
C          C       0.61347   0.47072   0.62287  -0.12358
C          C       0.42583   0.54092   0.80810   0.05991
C          C       0.56655   0.45348   0.69785   0.05863
C          C       0.44904   0.58982   0.72509  -0.10143
C          C       0.54551   0.40560   0.78694  -0.10222
C          C       0.42521   0.62064   0.71203  -0.10792
C          C       0.57068   0.37609   0.80031  -0.10895
C          C       0.34980   0.63365   0.75583   0.21761
C          C       0.64664   0.36449   0.74650   0.21729
C          C       0.44889   0.50694   0.82201   0.03998
C          C       0.54196   0.48599   0.68078   0.04178
C          C       0.29690   0.60714   0.72413  -0.23682
C          C       0.69973   0.39194   0.77306  -0.23618
C          C       0.38250   0.77313   0.79087   0.03813
C          C       0.61698   0.22570   0.70847   0.03876
C          C       0.43126   0.80280   0.72693  -0.10619
C          C       0.56909   0.19459   0.77672  -0.10911
C          C       0.45672   0.85788   0.73922  -0.10396
C          C       0.54509   0.13956   0.76354  -0.10344
C          C       0.43471   0.88459   0.82128   0.06041
C          C       0.56746   0.11410   0.67647   0.06085
C          C       0.38768   0.85460   0.89561  -0.12175
C          C       0.61391   0.14549   0.59999  -0.12529
C          C       0.36158   0.79965   0.87847  -0.13573
C          C       0.63866   0.20044   0.61805  -0.13546
C          C       0.35271   0.71510   0.76305   0.21450
C          C       0.64552   0.28386   0.73525   0.21540
C          C       0.45762   0.94197   0.82952   0.03876
C          C       0.54537   0.05674   0.66717   0.03881
N          N       0.02515   0.50494   0.25330  -0.18758
N          N       0.97423   0.49212   0.23228  -0.18369
N          N       0.49469   0.52158   0.22905  -0.18316
N          N       0.51081   0.48441   0.26275  -0.18221
N          N       0.48942   0.97292   0.23334  -0.18359
N          N       0.50514   0.02658   0.26318  -0.18322
N          N       0.37865   0.68786   0.26943  -0.32811
N          N       0.62135   0.31279   0.22442  -0.32733
N          N       0.02427   0.50798   0.75385  -0.18502
N          N       0.97334   0.49535   0.73244  -0.18776
N          N       0.48750   0.51505   0.73437  -0.18203
N          N       0.50339   0.47776   0.76884  -0.18464
N          N       0.49425   0.97246   0.73391  -0.18637
N          N       0.50840   0.02583   0.76104  -0.18361
N          N       0.37770   0.68695   0.77098  -0.32788
N          N       0.61958   0.31107   0.73149  -0.32767

