data_crystal

_audit_creation_method 'AiiDA-DDEC plugin'

_cell_length_a        29.54238
_cell_length_b        29.59366
_cell_length_c         8.02371

_cell_angle_alpha     89.83524
_cell_angle_beta     89.47762
_cell_angle_gamma     120.49117

_symmetry_space_group_name_Hall 'P 1'
_symmetry_space_group_name_H-M  'P 1'

loop_
_symmetry_equiv_pos_as_xyz
 'x,y,z'

loop_
_atom_site_label
_atom_site_type_symbol
_atom_site_fract_x
_atom_site_fract_y
_atom_site_fract_z
_atom_site_charge
H          H       0.56625   0.28813   0.38889   0.10450
H          H       0.70598   0.27784   0.39889   0.10403
H          H       0.71826   0.42873   0.38416   0.10275
H          H       0.43095   0.71024   0.10316   0.10464
H          H       0.29069   0.71984   0.09288   0.10266
H          H       0.27983   0.56958   0.13179   0.10482
H          H       0.67372   0.45666   0.04306   0.10870
H          H       0.53713   0.21474   0.03106   0.10987
H          H       0.78371   0.32568   0.03531   0.10907
H          H       0.32317   0.53774   0.50095   0.11000
H          H       0.46248   0.78952   0.43729   0.10736
H          H       0.21969   0.67623   0.45627   0.10821
H          H       0.63722   0.51556   0.49918   0.10832
H          H       0.48388   0.11482   0.52238   0.10668
H          H       0.87433   0.36091   0.52689   0.10743
H          H       0.36854   0.48813   0.99463   0.10666
H          H       0.51657   0.88191   0.97206   0.10709
H          H       0.11817   0.63052  -0.00399   0.10804
H          H       0.50611   0.39499   0.23191   0.11246
H          H       0.60057   0.11550   0.19634   0.10980
H          H       0.88670   0.48692   0.22361   0.11049
H          H       0.48643   0.60272   0.31533   0.10971
H          H       0.39468   0.88619   0.25368   0.11087
H          H       0.11315   0.50756   0.29620   0.11095
H          H       0.56488   0.52936   0.42644   0.08383
H          H       0.46857   0.03153   0.41127   0.08391
H          H       0.96222   0.43165   0.43556   0.08476
H          H       0.43569   0.47195   0.09855   0.08333
H          H       0.52992   0.96700   0.06223   0.08498
H          H       0.03335   0.55900   0.08892   0.08450
H          H       0.44568   0.65817   0.28878   0.10530
H          H       0.34033   0.78919   0.24110   0.10624
H          H       0.21029   0.55094   0.27714   0.10898
H          H       0.54597   0.33893   0.24458   0.10679
H          H       0.65497   0.21191   0.22270   0.10822
H          H       0.79023   0.44723   0.23601   0.10734
H          H       0.56928   0.29055   0.88947   0.10414
H          H       0.70896   0.27974   0.90057   0.10283
H          H       0.72086   0.43069   0.87942   0.10376
H          H       0.43436   0.71196   0.60910   0.10410
H          H       0.29506   0.72293   0.58879   0.10379
H          H       0.28218   0.57186   0.62216   0.10237
H          H       0.67686   0.45970   0.51331   0.10804
H          H       0.53802   0.21116   0.54860   0.10888
H          H       0.77810   0.32205   0.54495   0.10777
H          H       0.32767   0.54280   0.96940   0.10683
H          H       0.46230   0.78527   0.95548   0.10873
H          H       0.21461   0.67350   0.97262   0.10980
H          H       0.63244   0.51155   0.02858   0.10570
H          H       0.48210   0.11862   0.00688   0.10759
H          H       0.88012   0.36822   0.02038   0.10733
H          H       0.36395   0.48318   0.52796   0.10735
H          H       0.51457   0.88645   0.45378   0.10635
H          H       0.12335   0.63504   0.47920   0.10685
H          H       0.51343   0.39907   0.70627   0.11024
H          H       0.60422   0.11465   0.72434   0.11160
H          H       0.88768   0.49199   0.71697   0.11059
H          H       0.49536   0.60832   0.77925   0.11272
H          H       0.39609   0.88584   0.77019   0.11026
H          H       0.11616   0.51329   0.79175   0.11122
H          H       0.56647   0.52937   0.92638   0.08560
H          H       0.46857   0.03384   0.91442   0.08484
H          H       0.96619   0.43882   0.92599   0.08384
H          H       0.43569   0.47102   0.60207   0.08336
H          H       0.52917   0.96972   0.56174   0.08466
H          H       0.03804   0.56583   0.57974   0.08353
H          H       0.45424   0.66310   0.75714   0.10555
H          H       0.34421   0.78885   0.75686   0.10597
H          H       0.21307   0.55479   0.77079   0.10704
H          H       0.55506   0.34421   0.71830   0.10648
H          H       0.65993   0.21155   0.74686   0.10691
H          H       0.79103   0.44917   0.73009   0.10864
C          C       0.60889   0.30742   0.39162  -0.18235
C          C       0.68742   0.30152   0.39750  -0.18197
C          C       0.69432   0.38619   0.38880  -0.18133
C          C       0.38833   0.69115   0.10401  -0.18090
C          C       0.30944   0.69637   0.09889  -0.18276
C          C       0.30320   0.61206   0.11963  -0.18170
C          C       0.63247   0.27653   0.39490   0.07858
C          C       0.71901   0.35636   0.39421   0.07733
C          C       0.63931   0.36241   0.38786   0.07494
C          C       0.36455   0.72185   0.09634   0.07690
C          C       0.27806   0.64152   0.11189   0.07529
C          C       0.35819   0.63630   0.11574   0.07871
C          C       0.61457   0.39500   0.38066   0.06717
C          C       0.60032   0.21883   0.38644   0.06638
C          C       0.77678   0.38133   0.39098   0.06610
C          C       0.38346   0.60430   0.12828   0.06631
C          C       0.39686   0.77974   0.09620   0.06645
C          C       0.22012   0.61560   0.12287   0.06578
C          C       0.63980   0.44554   0.44948  -0.13582
C          C       0.55150   0.19054   0.46906  -0.13859
C          C       0.80162   0.35754   0.47124  -0.13750
C          C       0.36188   0.55571   0.04769  -0.13695
C          C       0.44721   0.80692   0.02218  -0.13576
C          C       0.19303   0.63769   0.04638  -0.13701
C          C       0.61717   0.47683   0.44304  -0.12236
C          C       0.52120   0.13622   0.45538  -0.11905
C          C       0.85593   0.37986   0.46306  -0.12127
C          C       0.38504   0.52504   0.06121  -0.12120
C          C       0.47779   0.86138   0.03068  -0.12052
C          C       0.13856   0.61332   0.05820  -0.12010
C          C       0.56841   0.45883   0.36602   0.05866
C          C       0.53839   0.10843   0.35669   0.05485
C          C       0.88734   0.42687   0.37389   0.05708
C          C       0.43012   0.54144   0.15816   0.05599
C          C       0.45920   0.89061   0.11435   0.05820
C          C       0.10916   0.56610   0.14799   0.05632
C          C       0.54310   0.40837   0.29555  -0.10182
C          C       0.58761   0.13672   0.27509  -0.10058
C          C       0.86258   0.45111   0.29500  -0.10025
C          C       0.45200   0.59030   0.23861  -0.09977
C          C       0.40855   0.86357   0.18668  -0.09953
C          C       0.13599   0.54362   0.22437  -0.10137
C          C       0.56565   0.37715   0.30374  -0.13270
C          C       0.61792   0.19069   0.29094  -0.13658
C          C       0.80848   0.42881   0.30375  -0.13343
C          C       0.42924   0.62120   0.22256  -0.13459
C          C       0.37821   0.80944   0.17726  -0.13422
C          C       0.19027   0.56792   0.21158  -0.13474
C          C       0.54601   0.49256   0.35701   0.03806
C          C       0.50495   0.05215   0.33721   0.04031
C          C       0.94381   0.44903   0.36145   0.03844
C          C       0.45210   0.50752   0.17408   0.04087
C          C       0.49265   0.94696   0.13191   0.03834
C          C       0.05268   0.54270   0.16351   0.03975
C          C       0.61188   0.30932   0.89142  -0.17923
C          C       0.69037   0.30340   0.89657  -0.18357
C          C       0.69724   0.38813   0.88610  -0.18151
C          C       0.39174   0.69288   0.60614  -0.18276
C          C       0.31326   0.69896   0.59564  -0.18066
C          C       0.30622   0.61433   0.61338  -0.18080
C          C       0.63530   0.27827   0.89508   0.07543
C          C       0.72196   0.35829   0.89032   0.07679
C          C       0.64234   0.36423   0.88800   0.07745
C          C       0.36826   0.72388   0.59737   0.07805
C          C       0.28160   0.64420   0.60505   0.07780
C          C       0.36114   0.63781   0.61407   0.07502
C          C       0.61740   0.39655   0.88176   0.06643
C          C       0.60263   0.22053   0.88937   0.06765
C          C       0.77983   0.38405   0.88411   0.06584
C          C       0.38545   0.60487   0.62768   0.06728
C          C       0.39975   0.78182   0.59826   0.06694
C          C       0.22381   0.61892   0.61301   0.06594
C          C       0.63923   0.44447   0.96668  -0.13862
C          C       0.55184   0.19341   0.96052  -0.13792
C          C       0.80617   0.36166   0.96304  -0.13735
C          C       0.36027   0.55336   0.56573  -0.13722
C          C       0.44827   0.81017   0.51377  -0.13655
C          C       0.19748   0.64116   0.53280  -0.13666
C          C       0.61591   0.47513   0.95921  -0.12013
C          C       0.52091   0.13912   0.94834  -0.12004
C          C       0.86069   0.38592   0.95553  -0.12076
C          C       0.38334   0.52258   0.57927  -0.12050
C          C       0.47748   0.86474   0.52197  -0.11945
C          C       0.14313   0.61779   0.54475  -0.12071
C          C       0.57035   0.45912   0.86514   0.05455
C          C       0.53940   0.11013   0.86266   0.05831
C          C       0.89101   0.43330   0.86709   0.05679
C          C       0.43227   0.54186   0.65624   0.05899
C          C       0.45950   0.89268   0.61632   0.05649
C          C       0.11318   0.57166   0.63947   0.05656
C          C       0.54818   0.41090   0.78082  -0.10026
C          C       0.59038   0.13714   0.79238  -0.09956
C          C       0.86469   0.45590   0.78811  -0.10179
C          C       0.45765   0.59333   0.71872  -0.09976
C          C       0.41021   0.86443   0.69739  -0.10065
C          C       0.13930   0.54879   0.71788  -0.09908
C          C       0.57130   0.38023   0.78971  -0.13452
C          C       0.62128   0.19114   0.80623  -0.13461
C          C       0.81042   0.43181   0.79702  -0.13523
C          C       0.43458   0.62397   0.70425  -0.13279
C          C       0.38114   0.81022   0.68789  -0.13501
C          C       0.19346   0.57199   0.70425  -0.13479
C          C       0.54830   0.49307   0.85419   0.03832
C          C       0.50565   0.05386   0.84385   0.03860
C          C       0.94765   0.45673   0.85530   0.03980
C          C       0.45435   0.50799   0.67067   0.03911
C          C       0.49271   0.94898   0.63535   0.03951
C          C       0.05687   0.54965   0.65719   0.04042
N          N       0.50486   0.48005   0.26761  -0.18624
N          N       0.51710   0.02635   0.23245  -0.18761
N          N       0.97215   0.48839   0.26173  -0.18483
N          N       0.49039   0.51813   0.27511  -0.18531
N          N       0.47926   0.97316   0.23076  -0.18767
N          N       0.02517   0.50385   0.26603  -0.18767
N          N       0.50862   0.48169   0.75872  -0.18507
N          N       0.51838   0.02774   0.74248  -0.18918
N          N       0.97612   0.49725   0.75972  -0.18830
N          N       0.49467   0.52016   0.76398  -0.18946
N          N       0.48062   0.97451   0.74144  -0.18630
N          N       0.02906   0.51206   0.76327  -0.18661

