data_crystal

_audit_creation_method 'AiiDA-DDEC plugin'

_cell_length_a        30.34773
_cell_length_b        29.07308
_cell_length_c         7.97949

_cell_angle_alpha     110.63692
_cell_angle_beta     74.11961
_cell_angle_gamma     121.08591

_symmetry_space_group_name_Hall 'P 1'
_symmetry_space_group_name_H-M  'P 1'

loop_
_symmetry_equiv_pos_as_xyz
 'x,y,z'

loop_
_atom_site_label
_atom_site_type_symbol
_atom_site_fract_x
_atom_site_fract_y
_atom_site_fract_z
_atom_site_charge
H          H       0.76695   0.31604   0.32065   0.11905
H          H       0.23200   0.68596   0.18205   0.11981
H          H       0.89806   0.50095   0.21644   0.11202
H          H       0.10416   0.50099   0.29282   0.11279
H          H       0.80599   0.46578   0.19332   0.10353
H          H       0.19634   0.53856   0.31722   0.10273
H          H       0.94991   0.42694   0.35122   0.08548
H          H       0.04947   0.57201   0.15587   0.08432
H          H       0.85962   0.35285   0.35246   0.10955
H          H       0.13853   0.64759   0.15639   0.10932
H          H       0.69586   0.46443   0.07669   0.10607
H          H       0.30585   0.54070   0.42380   0.10138
H          H       0.50956   0.40179   0.30833   0.11620
H          H       0.49248   0.60303   0.20126   0.11543
H          H       0.55280   0.34757   0.30418   0.11660
H          H       0.45001   0.65758   0.20088   0.11722
H          H       0.57837   0.53133   0.13436   0.08084
H          H       0.42229   0.47338   0.37444   0.08174
H          H       0.65281   0.51709   0.07699   0.10700
H          H       0.34821   0.48808   0.42908   0.10634
H          H       0.48624   0.12891   0.14217   0.10741
H          H       0.51412   0.87671   0.34985   0.10683
H          H       0.54373   0.22974   0.15983   0.11167
H          H       0.45781   0.77581   0.33458   0.11091
H          H       0.60564   0.12127   0.30632   0.11268
H          H       0.39240   0.88220   0.19433   0.11299
H          H       0.66374   0.22181   0.31507   0.11013
H          H       0.33530   0.78139   0.18662   0.11056
H          H       0.47041   0.04105   0.15658   0.08363
H          H       0.52840   0.96344   0.33755   0.08252
H          H       0.73018   0.43836   0.20216   0.12035
H          H       0.27218   0.56546   0.29590   0.11998
H          H       0.76649   0.31229   0.82665   0.11715
H          H       0.23079   0.68298   0.68694   0.11772
H          H       0.89820   0.49612   0.71567   0.11230
H          H       0.10514   0.49653   0.79155   0.11374
H          H       0.80635   0.46100   0.69082   0.10390
H          H       0.19769   0.53540   0.81520   0.10314
H          H       0.94970   0.42149   0.84836   0.08460
H          H       0.04900   0.56834   0.66436   0.08451
H          H       0.85921   0.34840   0.85520   0.10905
H          H       0.13719   0.64321   0.66089   0.11025
H          H       0.69657   0.46062   0.57434   0.10446
H          H       0.30696   0.53872   0.92851   0.10547
H          H       0.51097   0.40112   0.81156   0.11511
H          H       0.49368   0.60317   0.70038   0.11666
H          H       0.55329   0.34565   0.80578   0.11570
H          H       0.44959   0.65683   0.70460   0.11646
H          H       0.58109   0.53011   0.63276   0.08179
H          H       0.42463   0.47235   0.86939   0.08052
H          H       0.65454   0.51402   0.57249   0.10627
H          H       0.35067   0.48691   0.93050   0.10645
H          H       0.48577   0.12599   0.64300   0.10725
H          H       0.51343   0.87432   0.85135   0.10633
H          H       0.54334   0.22664   0.65969   0.11162
H          H       0.45747   0.77357   0.83676   0.11316
H          H       0.60532   0.11749   0.80208   0.11279
H          H       0.39155   0.87920   0.69467   0.11369
H          H       0.66339   0.21823   0.81395   0.10992
H          H       0.33464   0.77837   0.68778   0.11097
H          H       0.46944   0.03842   0.65803   0.08345
H          H       0.52800   0.96056   0.83500   0.08258
H          H       0.73065   0.43479   0.70096   0.12003
H          H       0.27256   0.56340   0.80163   0.11929
C          C       0.77969   0.38777   0.25503   0.02848
C          C       0.22117   0.61541   0.24986   0.02939
C          C       0.79601   0.35640   0.29789  -0.10864
C          C       0.20360   0.64562   0.20651  -0.10786
C          C       0.84790   0.37703   0.31407  -0.11932
C          C       0.15135   0.62403   0.19309  -0.12122
C          C       0.88544   0.42917   0.28311   0.06098
C          C       0.11475   0.57168   0.22465   0.06017
C          C       0.86905   0.46078   0.24098  -0.11166
C          C       0.13235   0.54125   0.26735  -0.11162
C          C       0.81718   0.44059   0.22836  -0.12433
C          C       0.18448   0.56271   0.27952  -0.12297
C          C       0.72439   0.36459   0.23665   0.23740
C          C       0.27679   0.63926   0.26557   0.23634
C          C       0.93968   0.44939   0.29606   0.04114
C          C       0.06029   0.55030   0.21220   0.04199
C          C       0.62709   0.40251   0.19241   0.03929
C          C       0.37504   0.60263   0.30996   0.03850
C          C       0.65528   0.45078   0.12990  -0.13371
C          C       0.34656   0.55441   0.37299  -0.12885
C          C       0.63114   0.48039   0.12921  -0.12888
C          C       0.37031   0.52479   0.37666  -0.12922
C          C       0.57842   0.46317   0.19436   0.06377
C          C       0.42308   0.54188   0.31356   0.06234
C          C       0.55017   0.41470   0.25687  -0.10860
C          C       0.45178   0.59035   0.25091  -0.10742
C          C       0.57406   0.38471   0.25447  -0.09824
C          C       0.42825   0.62046   0.25070  -0.09806
C          C       0.65169   0.37130   0.20301   0.24055
C          C       0.35025   0.63342   0.29703   0.24218
C          C       0.55495   0.49569   0.19339   0.04237
C          C       0.44609   0.50905   0.31557   0.04143
C          C       0.70504   0.39573   0.21021  -0.28007
C          C       0.29684   0.60831   0.28909  -0.27981
C          C       0.60735   0.23208   0.23794   0.00583
C          C       0.39298   0.77228   0.26041   0.00699
C          C       0.55667   0.20573   0.19274  -0.10108
C          C       0.44400   0.79929   0.30302  -0.10175
C          C       0.52485   0.14954   0.18319  -0.12710
C          C       0.47519   0.85547   0.31122  -0.12425
C          C       0.54222   0.11829   0.22209   0.06761
C          C       0.45680   0.88611   0.27428   0.06341
C          C       0.59267   0.14514   0.27215  -0.10605
C          C       0.40605   0.85863   0.22669  -0.10555
C          C       0.62475   0.20103   0.27796  -0.10328
C          C       0.37456   0.80270   0.22181  -0.10350
C          C       0.64201   0.29082   0.23465   0.34699
C          C       0.35891   0.71355   0.26563   0.34917
C          C       0.50729   0.05977   0.21033   0.04142
C          C       0.49118   0.94471   0.28615   0.04208
C          C       0.77945   0.38365   0.75746   0.02792
C          C       0.22111   0.61225   0.75139   0.02897
C          C       0.79558   0.35239   0.80217  -0.10545
C          C       0.20296   0.64230   0.71004  -0.10568
C          C       0.84747   0.37264   0.81706  -0.12089
C          C       0.15061   0.61999   0.69661  -0.12032
C          C       0.88521   0.42449   0.78435   0.06038
C          C       0.11459   0.56726   0.72649   0.06022
C          C       0.86905   0.45620   0.74181  -0.11323
C          C       0.13284   0.53706   0.76721  -0.11110
C          C       0.81724   0.43612   0.72885  -0.12251
C          C       0.18507   0.55918   0.77907  -0.12368
C          C       0.72425   0.36092   0.73873   0.23611
C          C       0.27667   0.63655   0.76785   0.23606
C          C       0.93949   0.44427   0.79480   0.04248
C          C       0.06008   0.54547   0.71396   0.04141
C          C       0.62773   0.39988   0.69385   0.03668
C          C       0.37547   0.60088   0.81254   0.03723
C          C       0.65621   0.44779   0.62931  -0.13243
C          C       0.34758   0.55265   0.87546  -0.13250
C          C       0.63264   0.47792   0.62796  -0.12849
C          C       0.37200   0.52338   0.87690  -0.12881
C          C       0.58018   0.46186   0.69575   0.06178
C          C       0.42485   0.54105   0.81243   0.06370
C          C       0.55153   0.41361   0.75971  -0.10565
C          C       0.45292   0.58973   0.75070  -0.10975
C          C       0.57482   0.38289   0.75661  -0.09821
C          C       0.42866   0.61933   0.75242  -0.09650
C          C       0.65193   0.36824   0.70488   0.24220
C          C       0.35033   0.63143   0.80068   0.24130
C          C       0.55739   0.49513   0.69487   0.04082
C          C       0.44849   0.50871   0.81390   0.04421
C          C       0.70532   0.39231   0.71093  -0.27953
C          C       0.29693   0.60615   0.79381  -0.27873
C          C       0.60696   0.22869   0.73789   0.00632
C          C       0.39242   0.76970   0.76232   0.00672
C          C       0.55632   0.20264   0.69259  -0.10159
C          C       0.44347   0.79676   0.80469  -0.10469
C          C       0.52444   0.14650   0.68318  -0.12666
C          C       0.47451   0.85290   0.81265  -0.12404
C          C       0.54176   0.11505   0.72080   0.06761
C          C       0.45600   0.88334   0.77531   0.06512
C          C       0.59229   0.14153   0.76938  -0.10774
C          C       0.40525   0.85577   0.72753  -0.10509
C          C       0.62441   0.19747   0.77668  -0.10205
C          C       0.37392   0.79990   0.72299  -0.10474
C          C       0.64173   0.28745   0.73627   0.34630
C          C       0.35848   0.71108   0.76781   0.35136
C          C       0.50657   0.05666   0.70939   0.04101
C          C       0.49045   0.94177   0.78574   0.04147
N          N       0.97552   0.49343   0.24298  -0.17585
N          N       0.02477   0.50636   0.26647  -0.17570
N          N       0.69259   0.31176   0.24842  -0.37175
N          N       0.30806   0.69228   0.25486  -0.37281
N          N       0.50733   0.48367   0.26159  -0.17220
N          N       0.49368   0.52091   0.24763  -0.17172
N          N       0.51867   0.02966   0.26140  -0.18428
N          N       0.47928   0.97486   0.23753  -0.18277
N          N       0.62014   0.31866   0.21540  -0.36058
N          N       0.38135   0.68614   0.28430  -0.36433
N          N       0.97543   0.48811   0.74099  -0.17562
N          N       0.02472   0.50028   0.76155  -0.17864
N          N       0.69218   0.30815   0.75091  -0.37002
N          N       0.30768   0.68940   0.75541  -0.37158
N          N       0.51007   0.48415   0.76517  -0.17214
N          N       0.49656   0.52151   0.75064  -0.17358
N          N       0.51799   0.02634   0.75911  -0.18425
N          N       0.47842   0.97173   0.73680  -0.18204
N          N       0.62014   0.31568   0.71777  -0.36313
N          N       0.38116   0.68408   0.78735  -0.36454

