data_crystal

_audit_creation_method 'AiiDA-DDEC plugin'

_cell_length_a        21.56012
_cell_length_b        21.55999
_cell_length_c         7.81999

_cell_angle_alpha     120.26795
_cell_angle_beta     59.48641
_cell_angle_gamma     120.62287

_symmetry_space_group_name_Hall 'P 1'
_symmetry_space_group_name_H-M  'P 1'

loop_
_symmetry_equiv_pos_as_xyz
 'x,y,z'

loop_
_atom_site_label
_atom_site_type_symbol
_atom_site_fract_x
_atom_site_fract_y
_atom_site_fract_z
_atom_site_charge
B          B       0.40803   0.58081   0.23928   0.54593
B          B       0.41178   0.82724   0.27783   0.57987
B          B       0.17216   0.58977   0.25906   0.57693
B          B       0.58939   0.41728   0.25338   0.54694
B          B       0.58423   0.17002   0.21325   0.57861
B          B       0.82503   0.40618   0.22942   0.57824
B          B       0.41971   0.59132   0.73612   0.54579
B          B       0.40877   0.82837   0.76780   0.57648
B          B       0.17251   0.58737   0.77896   0.58158
B          B       0.58219   0.40978   0.75372   0.54522
B          B       0.59445   0.17313   0.71959   0.57813
B          B       0.82909   0.41568   0.71915   0.57876
H          H       0.38336   0.37364   0.22956   0.17258
H          H       0.61426   0.62431   0.26172   0.17265
H          H       0.62319   0.00507   0.23170   0.17067
H          H       0.99253   0.61972   0.27411   0.17006
H          H       0.37281   0.99211   0.25853   0.17080
H          H       0.00474   0.37619   0.21470   0.17008
H          H       0.53126   0.26719   0.23989   0.11210
H          H       0.73356   0.25917   0.20165   0.11036
H          H       0.73378   0.46754   0.25207   0.11206
H          H       0.46506   0.73134   0.25572   0.11254
H          H       0.26312   0.73641   0.28294   0.11037
H          H       0.26377   0.52972   0.24041   0.11194
H          H       0.37616   0.38422   0.75412   0.17281
H          H       0.62555   0.61672   0.73582   0.17241
H          H       0.62349   0.99433   0.71245   0.16967
H          H       0.00847   0.62586   0.75448   0.17131
H          H       0.37973   0.00714   0.77477   0.17018
H          H       0.99314   0.37710   0.74336   0.17022
H          H       0.53308   0.26438   0.74296   0.11206
H          H       0.74103   0.26548   0.69818   0.11104
H          H       0.73158   0.46883   0.74767   0.11269
H          H       0.47009   0.73634   0.74173   0.11241
H          H       0.26146   0.73752   0.79755   0.11114
H          H       0.26998   0.53342   0.74650   0.11247
C          C       0.49737   0.43480   0.24938   0.19198
C          C       0.43194   0.49284   0.23744   0.21315
C          C       0.56480   0.06088   0.22686   0.21183
C          C       0.50209   0.93715   0.25508   0.23416
C          C       0.93481   0.50045   0.24927   0.22025
C          C       0.06089   0.56700   0.25878   0.23884
C          C       0.50024   0.56317   0.24192   0.19136
C          C       0.56559   0.50516   0.25437   0.21213
C          C       0.43122   0.93623   0.26313   0.21176
C          C       0.49394   0.06003   0.23504   0.23277
C          C       0.06215   0.49563   0.24155   0.22067
C          C       0.93613   0.42897   0.23114   0.23859
C          C       0.43247   0.42611   0.23712  -0.20356
C          C       0.57098   0.00325   0.23688  -0.26254
C          C       0.99385   0.56796   0.26233  -0.25513
C          C       0.56512   0.57185   0.25423  -0.20390
C          C       0.42505   0.99388   0.25303  -0.25973
C          C       0.00322   0.42806   0.22773  -0.25622
C          C       0.62748   0.25316   0.21735  -0.23106
C          C       0.74317   0.36753   0.22580  -0.23619
C          C       0.62850   0.37236   0.24436  -0.22600
C          C       0.70399   0.29032   0.21263   0.03193
C          C       0.70447   0.40767   0.24190   0.01926
C          C       0.59063   0.29520   0.23443   0.02550
C          C       0.36891   0.74402   0.27330  -0.23186
C          C       0.25395   0.62889   0.26312  -0.23541
C          C       0.36865   0.62549   0.24842  -0.22558
C          C       0.29276   0.70603   0.27509   0.03193
C          C       0.29281   0.58950   0.24954   0.01973
C          C       0.40595   0.70269   0.25876   0.02582
C          C       0.49462   0.43344   0.75263   0.21306
C          C       0.43697   0.49903   0.73964   0.19357
C          C       0.57118   0.06244   0.72472   0.23895
C          C       0.50364   0.93751   0.74326   0.22020
C          C       0.93956   0.50550   0.73796   0.23436
C          C       0.06358   0.56792   0.76403   0.21491
C          C       0.50698   0.56766   0.73850   0.21180
C          C       0.56458   0.50211   0.75155   0.19293
C          C       0.43210   0.93894   0.76188   0.23996
C          C       0.49967   0.06381   0.74298   0.21963
C          C       0.06217   0.49739   0.75926   0.23295
C          C       0.93803   0.43506   0.73394   0.21078
C          C       0.42829   0.43375   0.75009  -0.20772
C          C       0.57166   0.99586   0.72523  -0.25487
C          C       0.00619   0.57395   0.75241  -0.26271
C          C       0.57330   0.56731   0.74077  -0.20467
C          C       0.43162   0.00551   0.76137  -0.25511
C          C       0.99546   0.42895   0.74502  -0.26166
C          C       0.63289   0.25538   0.71914  -0.23620
C          C       0.74624   0.37220   0.72046  -0.23059
C          C       0.62727   0.37073   0.74427  -0.22394
C          C       0.70968   0.29511   0.71035   0.03191
C          C       0.70403   0.40907   0.73843   0.02314
C          C       0.59258   0.29417   0.73643   0.01948
C          C       0.37004   0.74637   0.77028  -0.23713
C          C       0.25573   0.63049   0.77482  -0.23150
C          C       0.37498   0.63076   0.74567  -0.22565
C          C       0.29277   0.70739   0.78330   0.03244
C          C       0.29790   0.59309   0.75474   0.02320
C          C       0.41025   0.70712   0.75131   0.02079
N          N       0.37636   0.50108   0.23331  -0.50997
N          N       0.49203   0.87376   0.26634  -0.52432
N          N       0.12564   0.62368   0.26812  -0.51985
N          N       0.62109   0.49701   0.25927  -0.51044
N          N       0.50398   0.12361   0.22474  -0.52517
N          N       0.87166   0.37213   0.21948  -0.51882
N          N       0.50280   0.37778   0.75660  -0.50982
N          N       0.62834   0.12658   0.71058  -0.51825
N          N       0.87601   0.49559   0.72778  -0.52502
N          N       0.49904   0.62326   0.73355  -0.50759
N          N       0.37487   0.87486   0.77664  -0.52019
N          N       0.12571   0.50732   0.76939  -0.52352
O          O       0.51267   0.38112   0.25059  -0.31898
O          O       0.62038   0.12919   0.21158  -0.32504
O          O       0.86577   0.48529   0.24729  -0.32496
O          O       0.48490   0.61685   0.24080  -0.31926
O          O       0.37563   0.86796   0.27881  -0.32538
O          O       0.13129   0.51085   0.24320  -0.32600
O          O       0.38367   0.51430   0.73646  -0.31935
O          O       0.48801   0.86891   0.74895  -0.32672
O          O       0.13201   0.62331   0.77818  -0.32575
O          O       0.61806   0.48690   0.75401  -0.31828
O          O       0.51528   0.13241   0.73743  -0.32577
O          O       0.86940   0.37979   0.72078  -0.32548

