data_crystal

_audit_creation_method 'AiiDA-DDEC plugin'

_cell_length_a        36.46700
_cell_length_b        36.63784
_cell_length_c         7.99464

_cell_angle_alpha     91.31267
_cell_angle_beta     118.24294
_cell_angle_gamma     120.20976

_symmetry_space_group_name_Hall 'P 1'
_symmetry_space_group_name_H-M  'P 1'

loop_
_symmetry_equiv_pos_as_xyz
 'x,y,z'

loop_
_atom_site_label
_atom_site_type_symbol
_atom_site_fract_x
_atom_site_fract_y
_atom_site_fract_z
_atom_site_charge
B          B       0.45141   0.55183   0.25472   0.56837
B          B       0.45409   0.89992   0.28218   0.57061
B          B       0.10159   0.54483   0.22001   0.55011
B          B       0.55249   0.44857   0.23562   0.56855
B          B       0.55486   0.10316   0.24576   0.56946
B          B       0.90169   0.45358   0.26846   0.54045
B          B       0.44540   0.55100   0.75030   0.56997
B          B       0.45635   0.89926   0.77838   0.56652
B          B       0.09646   0.55651   0.72112   0.53704
B          B       0.54333   0.44387   0.73857   0.56939
B          B       0.55064   0.10331   0.75892   0.56795
B          B       0.89685   0.44618   0.77113   0.55097
H          H       0.43227   0.42922   0.24999   0.16706
H          H       0.57166   0.57120   0.24126   0.16687
H          H       0.57289   0.99904   0.25521   0.16718
H          H       0.01319   0.57494   0.28803   0.16787
H          H       0.43676   0.00450   0.27823   0.16714
H          H       0.99075   0.42386   0.20597   0.16686
H          H       0.52001   0.36183   0.24297   0.10887
H          H       0.55808   0.32290   0.24096   0.10447
H          H       0.36602   0.52129   0.24855   0.10938
H          H       0.32760   0.55990   0.25115   0.10394
H          H       0.64483   0.16111   0.28184   0.11023
H          H       0.68399   0.23895   0.28791   0.10439
H          H       0.48243   0.84378   0.24570   0.10666
H          H       0.44267   0.76574   0.23331   0.10362
H          H       0.85496   0.48675   0.33250   0.10864
H          H       0.77573   0.44598   0.32363   0.10565
H          H       0.15291   0.63048   0.20436   0.11049
H          H       0.23158   0.67163   0.21263   0.10533
H          H       0.48392   0.63846   0.24359   0.10779
H          H       0.44437   0.67678   0.23483   0.10433
H          H       0.63827   0.47942   0.24288   0.10844
H          H       0.67756   0.44130   0.24480   0.10267
H          H       0.37189   0.84606   0.30154   0.10818
H          H       0.33364   0.76883   0.30251   0.10213
H          H       0.51763   0.15457   0.21708   0.10989
H          H       0.55498   0.23139   0.21309   0.10530
H          H       0.15927   0.51651   0.23149   0.10909
H          H       0.23967   0.55819   0.25076   0.10288
H          H       0.83926   0.36330   0.20162   0.10805
H          H       0.75822   0.32170   0.17756   0.10424
H          H       0.59025   0.29424   0.25135   0.10100
H          H       0.70694   0.29488   0.24142   0.09932
H          H       0.70324   0.40948   0.22071   0.10032
H          H       0.42018   0.70972   0.28270   0.10114
H          H       0.29820   0.70587   0.25727   0.10043
H          H       0.29459   0.58751   0.21811   0.09886
H          H       0.42061   0.42724   0.73340   0.16590
H          H       0.56869   0.56789   0.75921   0.16454
H          H       0.57583   0.00503   0.76585   0.16580
H          H       0.99276   0.56941   0.75908   0.16561
H          H       0.43120   0.99753   0.77039   0.16619
H          H       0.00029   0.43305   0.73071   0.16779
H          H       0.50994   0.35750   0.71767   0.10861
H          H       0.54823   0.31881   0.71270   0.10651
H          H       0.35505   0.51734   0.73295   0.10874
H          H       0.31590   0.55571   0.72553   0.10480
H          H       0.63569   0.15798   0.74342   0.10959
H          H       0.67096   0.23376   0.72956   0.10228
H          H       0.48828   0.84530   0.79621   0.11052
H          H       0.44710   0.76725   0.78881   0.10639
H          H       0.85090   0.48231   0.82799   0.11008
H          H       0.77099   0.44382   0.81158   0.10535
H          H       0.15163   0.64125   0.70745   0.10822
H          H       0.23089   0.67862   0.71889   0.10655
H          H       0.47639   0.63539   0.74864   0.11051
H          H       0.43793   0.67449   0.74243   0.10570
H          H       0.63450   0.47899   0.76575   0.10901
H          H       0.67385   0.44127   0.76563   0.10491
H          H       0.36560   0.84432   0.75206   0.10943
H          H       0.32278   0.76592   0.73457   0.10802
H          H       0.51865   0.15582   0.76106   0.10663
H          H       0.55492   0.23285   0.75507   0.10592
H          H       0.14959   0.52329   0.72947   0.10935
H          H       0.22957   0.56058   0.74821   0.10743
H          H       0.83268   0.35730   0.71105   0.10950
H          H       0.75114   0.31796   0.68302   0.10187
H          H       0.58205   0.29161   0.73545   0.09939
H          H       0.70168   0.29384   0.74757   0.09807
H          H       0.69777   0.40836   0.72164   0.10192
H          H       0.40779   0.70374   0.73590   0.09992
H          H       0.29865   0.71017   0.78034   0.09971
H          H       0.28779   0.58800   0.73210   0.09990
C          C       0.49983   0.46139   0.24276   0.21541
C          C       0.46330   0.49888   0.25155   0.23511
C          C       0.54313   0.03859   0.25629   0.23383
C          C       0.50666   0.96496   0.27118   0.21239
C          C       0.96850   0.50447   0.26932   0.21475
C          C       0.03960   0.53671   0.24211   0.19580
C          C       0.50429   0.53909   0.24961   0.21217
C          C       0.54077   0.50161   0.24060   0.23511
C          C       0.46663   0.96501   0.27768   0.23466
C          C       0.50255   0.03839   0.25902   0.21572
C          C       0.03580   0.49439   0.22635   0.22264
C          C       0.96388   0.46186   0.24804   0.19930
C          C       0.46200   0.45883   0.24843  -0.26777
C          C       0.54405  -0.00033   0.26105  -0.26728
C          C       0.00899   0.54331   0.26997  -0.21692
C          C       0.54208   0.54166   0.24388  -0.26836
C          C       0.46562   0.00393   0.27233  -0.26871
C          C       0.99522   0.45559   0.22509  -0.21899
C          C       0.55425   0.37906   0.24085  -0.03559
C          C       0.57607   0.35709   0.23986  -0.14563
C          C       0.38309   0.55548   0.24588  -0.04155
C          C       0.36120   0.57743   0.24516  -0.14366
C          C       0.62540   0.17681   0.26833  -0.04370
C          C       0.64736   0.22094   0.27121  -0.14940
C          C       0.44989   0.82742   0.25894  -0.03623
C          C       0.42741   0.78313   0.25375  -0.14520
C          C       0.83359   0.45053   0.29880  -0.04204
C          C       0.78835   0.42722   0.29019  -0.14456
C          C       0.17193   0.61455   0.21450  -0.04217
C          C       0.21691   0.63800   0.22097  -0.13417
C          C       0.44961   0.62130   0.24536  -0.03554
C          C       0.42726   0.64304   0.24186  -0.14302
C          C       0.62096   0.44507   0.24318  -0.04042
C          C       0.64299   0.42322   0.24393  -0.14445
C          C       0.38748   0.82834   0.28757  -0.04244
C          C       0.36554   0.78430   0.28570  -0.14427
C          C       0.55392   0.17291   0.23031  -0.03474
C          C       0.57548   0.21674   0.22964  -0.14427
C          C       0.17549   0.55069   0.22869  -0.03933
C          C       0.22093   0.57445   0.23852  -0.14254
C          C       0.82501   0.38136   0.22646  -0.03291
C          C       0.77935   0.35796   0.21441  -0.14388
C          C       0.64483   0.28823   0.24062   0.06373
C          C       0.71144   0.35549   0.23614   0.07326
C          C       0.64355   0.35467   0.23470   0.06512
C          C       0.57790   0.15152   0.24660  -0.20845
C          C       0.85301   0.42818   0.26676  -0.20765
C          C       0.57577   0.42346   0.23959  -0.21187
C          C       0.62272   0.24202   0.24863   0.08249
C          C       0.75976   0.38026   0.24580   0.08838
C          C       0.62076   0.37833   0.23948   0.08072
C          C       0.68906   0.31136   0.23856  -0.16182
C          C       0.68742   0.37606   0.23040  -0.16358
C          C       0.62298   0.31073   0.24013  -0.16970
C          C       0.36153   0.71336   0.26631   0.06632
C          C       0.29126   0.64392   0.24340   0.07495
C          C       0.36028   0.64570   0.25061   0.06721
C          C       0.43056   0.85125   0.27678  -0.21167
C          C       0.15004   0.57030   0.21850  -0.20317
C          C       0.42820   0.57705   0.24897  -0.21044
C          C       0.38498   0.76043   0.26918   0.07823
C          C       0.24281   0.61869   0.23375   0.08702
C          C       0.38288   0.62196   0.24450   0.07807
C          C       0.31556   0.68913   0.25593  -0.16398
C          C       0.31389   0.62285   0.23642  -0.16965
C          C       0.38400   0.69128   0.26927  -0.17385
C          C       0.49110   0.45734   0.73848   0.24017
C          C       0.45597   0.49640   0.74513   0.21735
C          C       0.54125   0.03879   0.76499   0.21814
C          C       0.50709   0.96468   0.77191   0.23918
C          C       0.96127   0.50172   0.76658   0.19738
C          C       0.03239   0.54142   0.73991   0.21882
C          C       0.49791   0.53766   0.75208   0.24144
C          C       0.53330   0.49873   0.74717   0.21841
C          C       0.46568   0.96372   0.77045   0.21783
C          C       0.50003   0.03786   0.76517   0.24204
C          C       0.03275   0.50117   0.72975   0.20046
C          C       0.96094   0.46118   0.75217   0.21811
C          C       0.45141   0.45716   0.73823  -0.26719
C          C       0.54579   0.00415   0.76756  -0.26034
C          C       0.99406   0.54045   0.75508  -0.21627
C          C       0.53778   0.53790   0.75367  -0.26337
C          C       0.46117   0.99837   0.76833  -0.26293
C          C      -0.00072   0.46214   0.73681  -0.22490
C          C       0.54564   0.37560   0.72594  -0.03049
C          C       0.56772   0.35391   0.72406  -0.14886
C          C       0.37317   0.55180   0.73401  -0.04260
C          C       0.35092   0.57375   0.72938  -0.14636
C          C       0.61798   0.17437   0.74680  -0.04774
C          C       0.63816   0.21768   0.74049  -0.14287
C          C       0.45235   0.82788   0.78594  -0.02993
C          C       0.42853   0.78350   0.77979  -0.14788
C          C       0.82898   0.44618   0.79603  -0.04488
C          C       0.78331   0.42416   0.78425  -0.13674
C          C       0.16896   0.62372   0.71673  -0.03775
C          C       0.21416   0.64486   0.72532  -0.14888
C          C       0.44141   0.61820   0.74557  -0.03218
C          C       0.41926   0.64017   0.74166  -0.14749
C          C       0.61560   0.44384   0.75462  -0.04636
C          C       0.63783   0.42223   0.75420  -0.14159
C          C       0.38339   0.82734   0.75909  -0.04553
C          C       0.35922   0.78281   0.74974  -0.14545
C          C       0.55218   0.17324   0.75441  -0.02764
C          C       0.57274   0.21679   0.75012  -0.14807
C          C       0.16772   0.55756   0.72870  -0.03673
C          C       0.21310   0.57884   0.73902  -0.14331
C          C       0.81890   0.37617   0.73224  -0.03921
C          C       0.77287   0.35412   0.71767  -0.14163
C          C       0.63807   0.28640   0.73487   0.06607
C          C       0.70550   0.35389   0.73527   0.07520
C          C       0.63726   0.35305   0.73095   0.06578
C          C       0.57428   0.15097   0.75300  -0.21288
C          C       0.84804   0.42279   0.77015  -0.20368
C          C       0.56879   0.42104   0.73911  -0.21078
C          C       0.61626   0.24022   0.74246   0.08192
C          C       0.75385   0.37747   0.74450   0.08717
C          C       0.61420   0.37643   0.73671   0.08187
C          C       0.68299   0.30987   0.73834  -0.16589
C          C       0.68168   0.37475   0.72971  -0.16725
C          C       0.61577   0.30866   0.73097  -0.17295
C          C       0.35630   0.71272   0.75849   0.06226
C          C       0.28635   0.64590   0.74906   0.07226
C          C       0.35172   0.64333   0.74161   0.06499
C          C       0.43052   0.85098   0.77745  -0.21209
C          C       0.14472   0.57955   0.71970  -0.20795
C          C       0.41928   0.57356   0.74419  -0.21638
C          C       0.38140   0.75975   0.76187   0.08456
C          C       0.23786   0.62324   0.73866   0.08853
C          C       0.37365   0.61882   0.73533   0.08142
C          C       0.31252   0.69116   0.76344  -0.16329
C          C       0.30704   0.62282   0.74060  -0.16065
C          C       0.37505   0.68807   0.74684  -0.16931
N          N       0.43154   0.50556   0.25579  -0.52678
N          N       0.57484   0.07665   0.24941  -0.53366
N          N       0.93248   0.50090   0.28428  -0.52056
N          N       0.57234   0.49489   0.23499  -0.52594
N          N       0.43523   0.92709   0.28639  -0.53158
N          N       0.07209   0.49814   0.21324  -0.52414
N          N       0.49601   0.42427   0.73243  -0.52698
N          N       0.50265   0.92693   0.77772  -0.52333
N          N       0.06928   0.57470   0.73212  -0.51977
N          N       0.49266   0.57055   0.75590  -0.52603
N          N       0.50473   0.07576   0.76233  -0.52441
N          N       0.92321   0.42763   0.75516  -0.52425
O          O       0.50759   0.42878   0.23938  -0.32655
O          O       0.49861   0.92454   0.27503  -0.32850
O          O       0.07970   0.56738   0.23383  -0.32648
O          O       0.49654   0.57177   0.25228  -0.32871
O          O       0.50999   0.07840   0.25030  -0.32846
O          O       0.92269   0.43069   0.24909  -0.32703
O          O       0.42414   0.50537   0.74689  -0.33046
O          O       0.57232   0.07951   0.76076  -0.33123
O          O       0.92201   0.49227   0.78174  -0.32599
O          O       0.56518   0.48971   0.74603  -0.33537
O          O       0.43453   0.92307   0.77435  -0.33054
O          O       0.07254   0.51102   0.71803  -0.33197

