data_crystal

_audit_creation_method 'AiiDA-DDEC plugin'

_cell_length_a        29.98411
_cell_length_b        30.32786
_cell_length_c         7.92552

_cell_angle_alpha     103.79663
_cell_angle_beta     113.16782
_cell_angle_gamma     118.45176

_symmetry_space_group_name_Hall 'P 1'
_symmetry_space_group_name_H-M  'P 1'

loop_
_symmetry_equiv_pos_as_xyz
 'x,y,z'

loop_
_atom_site_label
_atom_site_type_symbol
_atom_site_fract_x
_atom_site_fract_y
_atom_site_fract_z
_atom_site_charge
H          H       0.65128   0.68077   0.48812   0.11359
H          H       0.36373   0.98038   0.17460   0.13266
H          H       0.09341   0.45443   0.48071   0.10527
H          H       0.41846   0.39647   0.31957   0.09917
H          H       0.68915   0.12198   0.66510   0.10829
H          H       0.99494   0.62619   0.39394   0.12545
H          H       0.37590   0.36316   0.03306   0.10037
H          H       0.68268   0.07937   0.44265   0.11170
H          H       0.94941   0.58793   0.10328   0.10948
H          H       0.61475   0.64853   0.20339   0.10890
H          H       0.33691   0.93583   0.90494   0.10808
H          H       0.05747   0.40559   0.20501   0.11091
H          H       0.99466   0.42322   0.25759   0.13513
H          H       0.55800   0.20659   0.14929   0.27908
H          H       0.79224   0.45346   0.21536   0.10738
H          H       0.61816   0.70718   0.34389   0.12955
H          H       0.60993   0.58145   0.27406   0.13004
H          H       0.79974   0.35695   0.18013   0.28097
H          H       0.56631   0.35025   0.22957   0.11382
H          H       0.30737   0.90092   0.03059   0.11909
H          H       0.42789   0.02362   0.07544   0.13593
H          H       0.66229   0.46124   0.28213   0.27071
H          H       0.66809   0.22373   0.17676   0.11132
H          H       0.14234   0.45839   0.39748   0.13408
H          H       0.03998   0.60269   0.26118   0.13035
H          H       0.46820   0.83444   0.36552   0.27567
H          H       0.25128   0.58651   0.31449   0.11447
H          H       0.40973   0.33534   0.16473   0.12419
H          H       0.41869   0.46013   0.23200   0.13240
H          H       0.22753   0.67263   0.33939   0.27976
H          H       0.47717   0.70395   0.31547   0.11828
H          H       0.72623   0.15755   0.55555   0.13671
H          H       0.60069   0.01881   0.43766   0.13040
H          H       0.38205   0.59707   0.28826   0.26592
H          H       0.35473   0.81412   0.31806   0.10673
H          H       0.91136   0.58694   0.23083   0.12242
H          H       0.61798   0.63366   0.94435   0.09987
H          H       0.31601   0.92047   0.55138   0.11048
H          H       0.04875   0.41370   0.89821   0.10971
H          H       0.37713   0.34922   0.76966   0.10870
H          H       0.66511   0.06519   0.09816   0.10769
H          H       0.94190   0.59789   0.80080   0.10969
H          H       0.34077   0.31629   0.48513   0.11378
H          H       0.63511   0.01999   0.82398   0.13149
H          H       0.90682   0.54939   0.52590   0.10363
H          H       0.57492   0.59991   0.65766   0.10072
H          H       0.31288   0.87846   0.33819   0.10756
H          H       0.00352   0.37701   0.60791   0.12537
H          H       0.95966   0.40105   0.74866   0.13597
H          H       0.53182   0.16706   0.64237   0.27665
H          H       0.74701   0.41546   0.69067   0.11450
H          H       0.58469   0.66184   0.81293   0.12555
H          H       0.57508   0.53738   0.75008   0.13154
H          H       0.77253   0.33060   0.66883   0.27870
H          H       0.51893   0.29500   0.67581   0.11902
H          H       0.27403   0.84259   0.44312   0.13674
H          H       0.40007   0.98297   0.56935   0.13467
H          H       0.61377   0.40252   0.70499   0.26683
H          H       0.64585   0.18852   0.69097   0.10747
H          H       0.08689   0.41538   0.77077   0.12277
H          H       0.00511   0.58031   0.75012   0.13095
H          H       0.44161   0.79512   0.85836   0.27893
H          H       0.20688   0.54899   0.79093   0.10750
H          H       0.37348   0.29009   0.63203   0.13026
H          H       0.38265   0.41584   0.70108   0.13021
H          H       0.19985   0.64581   0.82682   0.27970
H          H       0.43078   0.65026   0.76405   0.11418
H          H       0.69242   0.09935   0.96675   0.11804
H          H       0.57294   0.97854   0.93635   0.13628
H          H       0.33370   0.53922   0.70815   0.27020
H          H       0.33152   0.77840   0.82944   0.11156
H          H       0.85714   0.54506   0.60586   0.13348
H          H       0.62216   0.16207   0.30342   0.26123
H          H       0.58063   0.44515   0.41061   0.27491
H          H       0.87161   0.46869   0.18555   0.25173
H          H       0.40740   0.88679   0.23290   0.25963
H          H       0.48938   0.62890   0.25541   0.26691
H          H       0.16721   0.56171   0.34100   0.26149
H          H       0.12758   0.53426   0.82212   0.25175
H          H       0.37852   0.84106   0.70785   0.26076
H          H       0.50462   0.36904   0.72800   0.26818
H          H       0.41409   0.55413   0.57408   0.27382
H          H       0.59369   0.11584   0.77846   0.26093
H          H       0.83139   0.44098   0.66384   0.26270
C          C       0.90876   0.42608   0.22899   0.44027
C          C       0.96293   0.47227   0.24167  -0.10279
C          C       0.45481   0.97732   0.20021   0.20564
C          C       0.00584   0.46310   0.25907  -0.21806
C          C       0.77979   0.41228   0.20509   0.06263
C          C       0.31066   0.66626   0.33436  -0.23639
C          C       0.34801   0.64961   0.32362   0.34508
C          C       0.61325   0.66832   0.33411  -0.18237
C          C       0.59037   0.48794   0.24159   0.43965
C          C       0.54975   0.50225   0.25235  -0.10025
C          C       0.05956   0.50284   0.27920   0.19870
C          C       0.56804   0.55583   0.26696  -0.22415
C          C       0.60798   0.38055   0.24145   0.09621
C          C       0.40143   0.68930   0.33013  -0.23153
C          C       0.41931   0.74540   0.35274   0.34751
C          C       0.34845   0.93879   0.05900  -0.18873
C          C       0.52469   0.10834   0.14227   0.43423
C          C       0.52318   0.06508   0.20521  -0.10155
C          C       0.53436   0.57504   0.27040   0.18971
C          C       0.46476   0.02096   0.15240  -0.20310
C          C       0.63694   0.23367   0.16547   0.08470
C          C       0.37852   0.75845   0.35104  -0.24567
C          C       0.32488   0.72056   0.34884   0.34900
C          C       0.09812   0.45013   0.34817  -0.19090
C          C       0.12533   0.60056   0.29155   0.43647
C          C       0.07137   0.55369   0.27672  -0.10225
C          C       0.57359   0.06507   0.31342   0.19637
C          C       0.02850   0.56266   0.25859  -0.19225
C          C       0.25939   0.62652   0.32538   0.06360
C          C       0.72798   0.37718   0.20243  -0.25569
C          C       0.69619   0.39993   0.22817   0.34337
C          C       0.41591   0.37501   0.17954  -0.18590
C          C       0.44236   0.55666   0.28156   0.44758
C          C       0.48002   0.54008   0.26019  -0.09927
C          C       0.97544   0.52356   0.24271   0.19918
C          C       0.46092   0.48595   0.24124  -0.21733
C          C       0.43726   0.67419   0.31295   0.07068
C          C       0.64030   0.36195   0.21438  -0.25148
C          C       0.61562   0.30297   0.17628   0.35469
C          C       0.68537   0.11697   0.51696  -0.18754
C          C       0.50310   0.93378   0.36966   0.44118
C          C       0.50505   0.97700   0.30672  -0.11758
C          C       0.49396   0.46603   0.23416   0.20969
C          C       0.56378   0.02143   0.36088  -0.22026
C          C       0.38867   0.80732   0.33977   0.07255
C          C       0.65189   0.28473   0.16694  -0.24619
C          C       0.70800   0.32072   0.17810   0.33776
C          C       0.94915   0.58752   0.24108  -0.18499
C          C       0.87403   0.40283   0.71514   0.43477
C          C       0.92798   0.44977   0.73016  -0.10000
C          C       0.42716   0.93699   0.69570   0.19267
C          C       0.97099   0.44088   0.74963  -0.19847
C          C       0.73956   0.37578   0.68114   0.06509
C          C       0.27123   0.62500   0.80329  -0.25467
C          C       0.30234   0.60175   0.77404   0.34487
C          C       0.57799   0.62198   0.79829  -0.18790
C          C       0.55092   0.44071   0.69843   0.44601
C          C       0.51297   0.45714   0.71817  -0.09914
C          C       0.02401   0.47982   0.76507   0.19753
C          C       0.53250   0.51148   0.73881  -0.21562
C          C       0.55923   0.32537   0.68115   0.06928
C          C       0.35801   0.63947   0.78620  -0.25460
C          C       0.38360   0.69895   0.82888   0.35654
C          C       0.31497   0.88357   0.48376  -0.18501
C          C       0.49780   0.06819   0.63947   0.43883
C          C       0.49588   0.02495   0.70238  -0.11554
C          C       0.49957   0.53157   0.74522   0.21068
C          C       0.43706   0.98054   0.64771  -0.22254
C          C       0.61162   0.19495   0.66888   0.07293
C          C       0.34760   0.71738   0.83948  -0.24843
C          C       0.29145   0.68154   0.82806   0.33786
C          C       0.04936   0.41506   0.76188  -0.18585
C          C       0.09094   0.57729   0.77894   0.43930
C          C       0.03662   0.53111   0.76586  -0.10171
C          C       0.54614   0.02468   0.80959   0.20399
C          C       0.99374   0.54035   0.74820  -0.21640
C          C       0.21951   0.59024   0.80163   0.06164
C          C       0.68840   0.33573   0.67202  -0.23817
C          C       0.65014   0.35157   0.67912   0.34551
C          C       0.37869   0.32894   0.63993  -0.18378
C          C       0.40345   0.51021   0.73871   0.43907
C          C       0.44357   0.49543   0.72609  -0.09839
C          C       0.93982   0.50057   0.72705   0.19868
C          C       0.42478   0.44154   0.70956  -0.22599
C          C       0.38919   0.62011   0.75292   0.09592
C          C       0.59650   0.31142   0.67089  -0.23029
C          C       0.57973   0.25590   0.65235   0.34919
C          C       0.65191   0.06203   0.94286  -0.18740
C          C       0.47589   0.89374   0.86743   0.43469
C          C       0.47758   0.93707   0.80487  -0.10105
C          C       0.45826   0.42209   0.70587   0.19242
C          C       0.53611   0.98117   0.85830  -0.20350
C          C       0.36274   0.76851   0.84144   0.08423
C          C       0.62119   0.24354   0.65646  -0.24611
C          C       0.67474   0.28167   0.65858   0.35028
C          C       0.90148   0.55339   0.65700  -0.18814
N          N       0.86415   0.43263   0.19139  -0.25001
N          N       0.58747   0.19673   0.15786  -0.07608
N          N       0.58743   0.44687   0.29279  -0.25855
N          N       0.81456   0.39776   0.19476  -0.07205
N          N       0.58136   0.15221   0.19035  -0.26452
N          N       0.62452   0.43323   0.28126  -0.08244
N          N       0.16809   0.59284   0.30968  -0.25352
N          N       0.43805   0.84492   0.34874  -0.06628
N          N       0.45528   0.60546   0.27384  -0.23014
N          N       0.21991   0.63455   0.32991  -0.06669
N          N       0.44541   0.88881   0.31122  -0.24952
N          N       0.42287   0.62353   0.29355  -0.07059
N          N       0.83129   0.41051   0.69827  -0.25509
N          N       0.56244   0.15713   0.66042  -0.06628
N          N       0.53885   0.39257   0.71024  -0.22782
N          N       0.77950   0.36838   0.67745  -0.06746
N          N       0.55539   0.11325   0.69760  -0.25048
N          N       0.57261   0.37548   0.69701  -0.07167
N          N       0.13519   0.57026   0.81532  -0.25141
N          N       0.41236   0.80533   0.84982  -0.07392
N          N       0.40756   0.55229   0.69218  -0.25610
N          N       0.18498   0.60503   0.81264  -0.07056
N          N       0.41905   0.85008   0.81851  -0.26404
N          N       0.37150   0.56688   0.70828  -0.08268
O          O       0.90399   0.38520   0.24946  -0.46584
O          O       0.29183   0.73446   0.36176  -0.49610
O          O       0.55301   0.62857   0.28997  -0.17885
O          O       0.62405   0.51124   0.18544  -0.47373
O          O       0.33342   0.60094   0.30819  -0.47649
O          O       0.39710   0.93410   0.14850  -0.17729
O          O       0.47800   0.10498   0.05072  -0.44896
O          O       0.46836   0.78081   0.36857  -0.45423
O          O       0.10267   0.49446   0.30076  -0.17646
O          O       0.13110   0.64302   0.28263  -0.46814
O          O       0.73928   0.30397   0.17052  -0.48038
O          O       0.47391   0.41196   0.20627  -0.17003
O          O       0.40169   0.52857   0.30861  -0.49056
O          O       0.71730   0.45133   0.26444  -0.49493
O          O       0.63156   0.10947   0.36902  -0.17048
O          O       0.54978   0.93723   0.46583  -0.46285
O          O       0.56587   0.27008   0.15968  -0.47002
O          O       0.93436   0.53398   0.23198  -0.17964
O          O       0.86834   0.36035   0.72359  -0.46531
O          O       0.26046   0.69858   0.83631  -0.48063
O          O       0.52010   0.58577   0.77328  -0.17151
O          O       0.59146   0.46872   0.67075  -0.48928
O          O       0.28077   0.55008   0.73566  -0.49594
O          O       0.36905   0.89272   0.63994  -0.17061
O          O       0.45104   0.06459   0.54288  -0.46328
O          O       0.43369   0.73199   0.84739  -0.47030
O          O       0.06507   0.46931   0.77637  -0.17750
O          O       0.09603   0.61835   0.75942  -0.46352
O          O       0.70812   0.26816   0.64645  -0.49615
O          O       0.43905   0.36824   0.68407  -0.18169
O          O       0.36945   0.48669   0.79348  -0.47174
O          O       0.66404   0.39984   0.69215  -0.47691
O          O       0.60388   0.06789   0.86158  -0.17691
O          O       0.52232   0.89670   0.95857  -0.44981
O          O       0.53089   0.22024   0.63714  -0.45541
O          O       0.89657   0.50888   0.70395  -0.17689

