
##########################################################################
#               Crystallographic Information Format file
#               Produced by PyCifRW module
#
#  This is a CIF file.  CIF has been adopted by the International
#  Union of Crystallography as the standard for data archiving and
#  transmission.
#
#  For information on this file format, follow the CIF links at
#  http://www.iucr.org
##########################################################################

data_image0

_cell_length_a                          50.4905
_cell_length_b                          43.2101
_cell_length_c                          8.12849
_cell_angle_alpha                       68.9614
_cell_angle_beta                        116.013
_cell_angle_gamma                       88.9743
_symmetry_space_group_name_H-M          'P 1'
_space_group_name_Hall                  'P 1'
loop_
  _atom_site_type_symbol
  _atom_site_label
  _atom_site_fract_x
  _atom_site_fract_y
  _atom_site_fract_z
  _atom_site_charge
         N         N         0.29291   0.30073   0.29112   -0.316803           
         N         N         0.29658   0.25171   0.25980   -0.374072           
         N         N         0.21442   0.74072   0.25021   -0.365906           
         N         N         0.21157   0.79212   0.25488   -0.328357           
         N         N         0.06852   0.77389   0.24932   -0.296241           
         N         N         0.43417   0.31071   0.24424   -0.285223           
         N         N         0.25157   0.58779   0.22752   -0.293940           
         N         N         0.24860   0.08646   0.24218   -0.294249           
         N         N         0.27303   0.95666   0.26258   -0.285154           
         N         N         0.24869   0.45746   0.23508   -0.287243           
         C         C         0.26557   0.29131   0.25906   0.109559  
         C         C         0.23920   0.30751   0.24005   -0.025319           
         C         C         0.21605   0.28898   0.20775   -0.129753           
         C         C         0.26861   0.25987   0.24183   0.105076  
         C         C         0.24494   0.24167   0.21050   0.017191  
         C         C         0.21885   0.25767   0.19477   -0.156557           
         C         C         0.31056   0.27658   0.28655   0.280736  
         C         C         0.24093   0.75114   0.26918   0.098155  
         C         C         0.26655   0.73405   0.28175   0.012457  
         C         C         0.23993   0.78369   0.27672   0.103280  
         C         C         0.28914   0.78318   0.31678   -0.139669           
         C         C         0.04122   0.76963   0.25009   0.202964  
         C         C         0.19760   0.76494   0.24810   0.276847  
         C         C         0.26381   0.80120   0.29945   -0.019073           
         C         C         0.29038   0.75150   0.30755   -0.155285           
         C         C         0.23570   0.34119   0.24263   0.076052  
         C         C         0.26837   0.70094   0.26920   0.076891  
         C         C         0.27189   0.60522   0.21850   0.067213  
         C         C         0.26316   0.83480   0.30636   0.077365  
         C         C         0.24794   0.20858   0.19927   0.077336  
         C         C         0.16898   0.76245   0.24866   0.013299  
         C         C         0.33946   0.27937   0.29063   0.015332  
         C         C         0.35126   0.30900   0.27973   -0.131858           
         C         C         0.37837   0.31095   0.27481   -0.109477           
         C         C         0.39462   0.28323   0.28224   0.051661  
         C         C         0.38269   0.25376   0.29205   -0.139773           
         C         C         0.35553   0.25186   0.29503   -0.110099           
         C         C         0.42337   0.28361   0.28180   0.064408  
         C         C         0.25193   0.55597   0.22124   0.202925  
         C         C         0.22521   0.54365   0.19195   -0.130656           
         C         C         0.22323   0.51141   0.19674   -0.163861           
         C         C         0.24820   0.48987   0.23224   0.202129  
         C         C         0.27476   0.50233   0.25772   -0.139977           
         C         C         0.27681   0.53455   0.25422   -0.170307           
         C         C         0.25596   0.05488   0.24389   0.202191  
         C         C         0.23422   0.03459   0.23291   -0.140431           
         C         C         0.23922   0.00251   0.23781   -0.168124           
         C         C         0.26668   0.98874   0.25887   0.197860  
         C         C         0.28846   0.00906   0.26904   -0.148402           
         C         C         0.28341   0.04126   0.26401   -0.173715           
         C         C         0.25640   0.14340   0.19750   0.048971  
         C         C         0.15119   0.78909   0.24027   -0.131865           
         C         C         0.12437   0.78523   0.24634   -0.101592           
         C         C         0.11453   0.75445   0.26212   0.059991  
         C         C         0.13246   0.72784   0.27189   -0.118108           
         C         C         0.15918   0.73170   0.26447   -0.090070           
         C         C         0.08652   0.74956   0.26899   0.074550  
         C         C         0.22886   0.18592   0.22821   -0.137227           
         C         C         0.23313   0.15396   0.22925   -0.114694           
         C         C         0.27477   0.16619   0.16232   -0.125609           
         C         C         0.27079   0.19792   0.16392   -0.126206           
         C         C         0.28245   0.85582   0.26179   -0.136050           
         C         C         0.28171   0.88779   0.26505   -0.098422           
         C         C         0.26175   0.90037   0.31595   0.056078  
         C         C         0.24277   0.87951   0.36279   -0.125648           
         C         C         0.24345   0.84774   0.35735   -0.155414           
         C         C         0.25953   0.93348   0.32370   0.068183  
         C         C         0.26222   0.11054   0.19452   0.072685  
         C         C         0.21369   0.35326   0.28018   -0.136674           
         C         C         0.21069   0.38553   0.27879   -0.123702           
         C         C         0.23009   0.40697   0.24436   0.049995  
         C         C         0.25155   0.39554   0.20148   -0.114257           
         C         C         0.25398   0.36384   0.19845   -0.155171           
         C         C         0.22889   0.43994   0.25465   0.062796  
         C         C         0.29183   0.68759   0.24755   -0.141137           
         C         C         0.29321   0.65657   0.23254   -0.134901           
         C         C         0.27104   0.63742   0.23783   0.051647  
         C         C         0.24771   0.65053   0.26008   -0.105209           
         C         C         0.24646   0.68127   0.27646   -0.115548           
         C         C         0.46190   0.30859   0.24415   0.197913  
         C         C         0.47814   0.33394   0.27420   -0.145322           
         C         C         0.47426   0.28301   0.21264   -0.163168           
         C         C         0.02662   0.74259   0.22741   -0.170935           
         C         C         0.02673   0.79548   0.26793   -0.146718           
         H         H         0.29959   0.32016   0.32985   0.284918  
         H         H         0.20426   0.81239   0.27001   0.280473  
         H         H         0.19466   0.29991   0.18698   0.105357  
         H         H         0.19960   0.24553   0.16746   0.109418  
         H         H         0.30910   0.79404   0.34276   0.106185  
         H         H         0.31119   0.73973   0.32499   0.106746  
         H         H         0.29016   0.59710   0.19429   0.060932  
         H         H         0.33893   0.33083   0.27204   0.108327  
         H         H         0.38778   0.33356   0.26792   0.122630  
         H         H         0.39490   0.23241   0.29471   0.108512  
         H         H         0.34596   0.22942   0.29937   0.127437  
         H         H         0.43568   0.25877   0.31841   0.058410  
         H         H         0.20627   0.56033   0.16772   0.118356  
         H         H         0.20231   0.50269   0.17301   0.108508  
         H         H         0.29374   0.48554   0.28303   0.116581  
         H         H         0.29794   0.54292   0.28057   0.106832  
         H         H         0.21336   0.04512   0.22045   0.119892  
         H         H         0.22160   0.98795   0.22329   0.106995  
         H         H         0.30956   0.99867   0.28376   0.115831  
         H         H         0.30108   0.05580   0.27812   0.109720  
         H         H         0.15834   0.81306   0.22914   0.099496  
         H         H         0.11044   0.80556   0.24015   0.112940  
         H         H         0.12519   0.70389   0.28507   0.107780  
         H         H         0.17320   0.71112   0.27371   0.122340  
         H         H         0.08208   0.72387   0.29434   0.063524  
         H         H         0.21110   0.19293   0.25761   0.102719  
         H         H         0.21890   0.13639   0.25743   0.114967  
         H         H         0.29230   0.15877   0.13186   0.102665  
         H         H         0.28555   0.21477   0.13915   0.106671  
         H         H         0.29813   0.84694   0.22203   0.104109  
         H         H         0.29639   0.90369   0.22690   0.117882  
         H         H         0.22740   0.88821   0.40552   0.094171  
         H         H         0.22976   0.83206   0.40829   0.084927  
         H         H         0.24520   0.93747   0.38761   0.062541  
         H         H         0.27895   0.10782   0.14551   0.059417  
         H         H         0.19932   0.33670   0.31668   0.105420  
         H         H         0.19376   0.39392   0.31107   0.101577  
         H         H         0.26578   0.41253   0.16696   0.113983  
         H         H         0.26904   0.35753   0.14764   0.094287  
         H         H         0.21129   0.44825   0.28377   0.065651  
         H         H         0.30893   0.70198   0.23791   0.101071  
         H         H         0.31142   0.64712   0.21425   0.099934  
         H         H         0.23060   0.63586   0.26504   0.112880  
         H         H         0.22816   0.69092   0.29234   0.111892  
         H         H         0.46846   0.35381   0.29639   0.120836  
         H         H         0.46150   0.26414   0.17840   0.100570  
         H         H         0.03655   0.72299   0.20461   0.108755  
         H         H         0.03802   0.81616   0.28559   0.120791  
         N         N         0.69324   0.30016   0.27804   -0.322478           
         N         N         0.68996   0.24798   0.28822   -0.368918           
         N         N         0.81076   0.73954   0.23215   -0.376095           
         N         N         0.81444   0.79135   0.22779   -0.321404           
         N         N         0.95635   0.77026   0.23477   -0.286998           
         N         N         0.54722   0.30839   0.26318   -0.303817           
         N         N         0.76389   0.58460   0.25871   -0.309467           
         N         N         0.75597   0.08451   0.27815   -0.301323           
         N         N         0.75331   0.95758   0.23132   -0.283434           
         N         N         0.74463   0.45597   0.26831   -0.298155           
         C         C         0.71923   0.28817   0.28120   0.091578  
         C         C         0.74351   0.30330   0.27389   -0.031943           
         C         C         0.76524   0.28204   0.27561   -0.138142           
         C         C         0.71644   0.25491   0.28625   0.099581  
         C         C         0.73853   0.23458   0.28267   0.010400  
         C         C         0.76289   0.24974   0.27973   -0.154301           
         C         C         0.67644   0.27520   0.28318   0.292040  
         C         C         0.78598   0.75273   0.23660   0.103587  
         C         C         0.76126   0.73815   0.24405   0.012648  
         C         C         0.78821   0.78556   0.23762   0.104849  
         C         C         0.74327   0.79040   0.25798   -0.131972           
         C         C         0.98436   0.76768   0.24066   0.193640  
         C         C         0.82756   0.76283   0.22875   0.275405  
         C         C         0.76734   0.80556   0.24938   -0.025029           
         C         C         0.74050   0.75842   0.25574   -0.140648           
         C         C         0.74711   0.33756   0.26402   0.073110  
         C         C         0.75743   0.70444   0.24421   0.081170  
         C         C         0.74561   0.60515   0.26440   0.082171  
         C         C         0.77007   0.83900   0.25502   0.082020  
         C         C         0.73696   0.20081   0.27935   0.086703  
         C         C         0.85639   0.75920   0.23072   0.003818  
         C         C         0.64731   0.27889   0.27677   0.014835  
         C         C         0.63528   0.30614   0.29743   -0.128560           
         C         C         0.60679   0.30913   0.28280   -0.098493           
         C         C         0.58950   0.28474   0.24759   0.060741  
         C         C         0.60171   0.25748   0.22823   -0.118400           
         C         C         0.63015   0.25438   0.24351   -0.097584           
         C         C         0.55986   0.28573   0.23492   0.065689  
         C         C         0.75758   0.55323   0.25704   0.197645  
         C         C         0.77938   0.53203   0.25891   -0.139294           
         C         C         0.77587   0.50009   0.26099   -0.176522           
         C         C         0.75006   0.48797   0.26022   0.196104  
         C         C         0.72823   0.50916   0.25791   -0.145576           
         C         C         0.73166   0.54114   0.25438   -0.172394           
         C         C         0.75427   0.05277   0.26989   0.197666  
         C         C         0.77751   0.03819   0.25121   -0.139158           
         C         C         0.77814   0.00701   0.23793   -0.166957           
         C         C         0.75527   0.98898   0.24354   0.188300  
         C         C         0.73179   0.00378   0.25917   -0.150250           
         C         C         0.73135   0.03475   0.27410   -0.168223           
         C         C         0.73592   0.13471   0.28352   0.055571  
         C         C         0.87344   0.78475   0.23335   -0.131949           
         C         C         0.90081   0.78071   0.23431   -0.106716           
         C         C         0.91233   0.75084   0.23328   0.061018  
         C         C         0.89551   0.72514   0.23311   -0.134540           
         C         C         0.86799   0.72925   0.23119   -0.106652           
         C         C         0.94111   0.74653   0.23397   0.061893  
         C         C         0.76036   0.18259   0.27727   -0.133438           
         C         C         0.75997   0.15045   0.27956   -0.096126           
         C         C         0.71226   0.15282   0.28125   -0.124624           
         C         C         0.71265   0.18515   0.27936   -0.120284           
         C         C         0.74410   0.86339   0.18196   -0.127151           
         C         C         0.74600   0.89523   0.18357   -0.083099           
         C         C         0.77419   0.90438   0.26047   0.054172  
         C         C         0.80024   0.88027   0.33570   -0.135953           
         C         C         0.79821   0.84824   0.33369   -0.169357           
         C         C         0.77658   0.93713   0.27285   0.056027  
         C         C         0.73495   0.10117   0.28374   0.078447  
         C         C         0.76816   0.35279   0.20844   -0.135174           
         C         C         0.77197   0.38507   0.19797   -0.117295           
         C         C         0.75453   0.40426   0.23728   0.054983  
         C         C         0.73347   0.38945   0.29251   -0.100893           
         C         C         0.73028   0.35683   0.30795   -0.150660           
         C         C         0.75881   0.43821   0.22117   0.070252  
         C         C         0.73152   0.69231   0.24144   -0.131072           
         C         C         0.72824   0.66004   0.24991   -0.125606           
         C         C         0.75041   0.63847   0.25808   0.056089  
         C         C         0.77589   0.65065   0.25454   -0.100494           
         C         C         0.77938   0.68276   0.24870   -0.123777           
         C         C         0.51889   0.30704   0.25411   0.195220  
         C         C         0.50623   0.33286   0.28185   -0.142062           
         C         C         0.50203   0.28222   0.21748   -0.166426           
         C         C         0.99889   0.74160   0.22324   -0.161560           
         C         C         0.99898   0.79449   0.26342   -0.138418           
         H         H         0.68681   0.32382   0.26205   0.282146  
         H         H         0.82269   0.81261   0.22473   0.282297  
         H         H         0.78509   0.29107   0.27398   0.109079  
         H         H         0.78088   0.23620   0.27691   0.108660  
         H         H         0.72671   0.80344   0.27556   0.107266  
         H         H         0.72161   0.74867   0.27021   0.108527  
         H         H         0.72506   0.59902   0.27252   0.056721  
         H         H         0.64856   0.32480   0.32968   0.100237  
         H         H         0.59762   0.32984   0.30143   0.114630  
         H         H         0.58839   0.23864   0.20032   0.103630  
         H         H         0.63965   0.23349   0.22804   0.120766  
         H         H         0.54927   0.26508   0.20359   0.055946  
         H         H         0.79914   0.54161   0.25864   0.119340  
         H         H         0.79330   0.48429   0.26459   0.110248  
         H         H         0.70862   0.49950   0.26061   0.118161  
         H         H         0.71436   0.55644   0.25455   0.106841  
         H         H         0.79475   0.05257   0.24472   0.120086  
         H         H         0.79591   0.99693   0.21821   0.107890  
         H         H         0.71416   0.98984   0.26211   0.120552  
         H         H         0.71332   0.04478   0.29163   0.106657  
         H         H         0.86554   0.80794   0.23741   0.104962  
         H         H         0.91418   0.80016   0.23813   0.119895  
         H         H         0.90385   0.70206   0.22991   0.108609  
         H         H         0.85467   0.70978   0.22711   0.125625  
         H         H         0.94881   0.72227   0.23693   0.064831  
         H         H         0.77929   0.19369   0.27304   0.101952  
         H         H         0.77804   0.13664   0.27814   0.113058  
         H         H         0.69332   0.14122   0.28259   0.099499  
         H         H         0.69437   0.19862   0.27998   0.109404  
         H         H         0.72211   0.85698   0.12299   0.110420  
         H         H         0.72591   0.91397   0.12494   0.117549  
         H         H         0.82230   0.88658   0.39891   0.105642  
         H         H         0.81891   0.82960   0.40532   0.092704  
         H         H         0.79929   0.94272   0.32645   0.063466  
         H         H         0.71497   0.09144   0.28389   0.058551  
         H         H         0.78140   0.33957   0.16925   0.099483  
         H         H         0.78828   0.39607   0.15405   0.104468  
         H         H         0.72012   0.40386   0.32570   0.108421  
         H         H         0.71552   0.34564   0.36668   0.087530  
         H         H         0.77457   0.44777   0.16489   0.063429  
         H         H         0.71374   0.70812   0.23413   0.103827  
         H         H         0.70830   0.65105   0.25116   0.101970  
         H         H         0.79274   0.63438   0.25591   0.112268  
         H         H         0.79912   0.69185   0.24567   0.110947  
         H         H         0.51921   0.35189   0.31061   0.122915  
         H         H         0.51043   0.26237   0.18935   0.105231  
         H         H         0.98791   0.72106   0.19868   0.109248  
         H         H         0.98773   0.81424   0.27826   0.120642  
         N         N         0.31124   0.28549   0.79366   -0.327929           
         N         N         0.31299   0.23624   0.76043   -0.376455           
         N         N         0.18714   0.73112   0.75672   -0.368994           
         N         N         0.18445   0.78238   0.76456   -0.330083           
         N         N         0.04212   0.77188   0.75686   -0.294475           
         N         N         0.45250   0.29097   0.75475   -0.282064           
         N         N         0.22936   0.57896   0.69792   -0.296993           
         N         N         0.24114   0.07870   0.71912   -0.294086           
         N         N         0.24549   0.94597   0.75740   -0.275622           
         N         N         0.25256   0.44855   0.72481   -0.290315           
         C         C         0.28349   0.27718   0.76207   0.105144  
         C         C         0.25795   0.29425   0.74718   -0.014934           
         C         C         0.23396   0.27703   0.71168   -0.135848           
         C         C         0.28511   0.24578   0.74112   0.110037  
         C         C         0.26046   0.22894   0.70737   0.009990  
         C         C         0.23518   0.24629   0.69340   -0.137074           
         C         C         0.32821   0.26012   0.79225   0.278751  
         C         C         0.21228   0.74316   0.75477   0.104833  
         C         C         0.23697   0.72803   0.74908   0.016774  
         C         C         0.21101   0.77574   0.76084   0.098326  
         C         C         0.25769   0.77918   0.76307   -0.139407           
         C         C         0.01386   0.77004   0.74667   0.196574  
         C         C         0.17114   0.75458   0.76584   0.292963  
         C         C         0.23300   0.79530   0.76150   -0.036685           
         C         C         0.25931   0.74744   0.75527   -0.147038           
         C         C         0.25439   0.32732   0.75654   0.081379  
         C         C         0.23963   0.69492   0.73796   0.088408  
         C         C         0.25035   0.59629   0.73253   0.077877  
         C         C         0.23012   0.82986   0.75272   0.083116  
         C         C         0.26081   0.19549   0.69907   0.079117  
         C         C         0.14255   0.75298   0.76706   0.021165  
         C         C         0.35771   0.26144   0.80340   0.010048  
         C         C         0.37092   0.28999   0.80322   -0.133708           
         C         C         0.39799   0.29134   0.79736   -0.105758           
         C         C         0.41305   0.26384   0.79510   0.053233  
         C         C         0.40032   0.23492   0.80227   -0.130492           
         C         C         0.37307   0.23376   0.80484   -0.108253           
         C         C         0.44125   0.26408   0.78666   0.061050  
         C         C         0.23579   0.54679   0.70359   0.206654  
         C         C         0.21694   0.52424   0.73677   -0.144936           
         C         C         0.22174   0.49171   0.74708   -0.168017           
         C         C         0.24537   0.48049   0.71981   0.190247  
         C         C         0.26379   0.50323   0.68307   -0.135283           
         C         C         0.25910   0.53571   0.67366   -0.170348           
         C         C         0.24309   0.04572   0.72814   0.203333  
         C         C         0.22125   0.02812   0.75912   -0.141642           
         C         C         0.22124   0.99530   0.76907   -0.173343           
         C         C         0.24317   0.97892   0.74734   0.194800  
         C         C         0.26507   0.99643   0.71748   -0.139879           
         C         C         0.26481   0.02926   0.70530   -0.161132           
         C         C         0.26214   0.12828   0.71798   0.049646  
         C         C         0.12655   0.77990   0.76838   -0.123770           
         C         C         0.09908   0.77830   0.76673   -0.100552           
         C         C         0.08650   0.74959   0.76207   0.061093  
         C         C         0.10250   0.72259   0.76168   -0.130682           
         C         C         0.13014   0.72413   0.76449   -0.101359           
         C         C         0.05740   0.74759   0.75573   0.063233  
         C         C         0.23680   0.17876   0.69720   -0.132576           
         C         C         0.23723   0.14630   0.70432   -0.110902           
         C         C         0.28589   0.14473   0.71631   -0.128685           
         C         C         0.28517   0.17773   0.70470   -0.123641           
         C         C         0.25583   0.84380   0.82370   -0.123930           
         C         C         0.25333   0.87686   0.80787   -0.103511           
         C         C         0.22492   0.89777   0.72310   0.051089  
         C         C         0.19917   0.88432   0.65060   -0.134689           
         C         C         0.20170   0.85127   0.66308   -0.163007           
         C         C         0.22208   0.93256   0.70590   0.049337  
         C         C         0.26360   0.09366   0.73363   0.071350  
         C         C         0.23007   0.33799   0.77946   -0.137555           
         C         C         0.22381   0.37044   0.76631   -0.125475           
         C         C         0.24234   0.39360   0.73888   0.047495  
         C         C         0.26744   0.38281   0.72477   -0.109725           
         C         C         0.27301   0.35071   0.73041   -0.143748           
         C         C         0.23497   0.42716   0.72917   0.054039  
         C         C         0.26575   0.68019   0.74744   -0.129230           
         C         C         0.26878   0.64850   0.74337   -0.133791           
         C         C         0.24567   0.63004   0.72715   0.053155  
         C         C         0.21929   0.64485   0.71284   -0.097864           
         C         C         0.21642   0.67632   0.71967   -0.122076           
         C         C         0.47995   0.28970   0.75119   0.196006  
         C         C         0.49465   0.31658   0.76965   -0.142695           
         C         C         0.49413   0.26330   0.73464   -0.169862           
         C         C         0.99858   0.74336   0.72774   -0.158433           
         C         C         -0.00033  0.79731   0.75582   -0.141153           
         H         H         0.31978   0.30249   0.85163   0.282739  
         H         H         0.17950   0.80055   0.80411   0.281915  
         H         H         0.21304   0.28846   0.69375   0.108992  
         H         H         0.21506   0.23579   0.66478   0.107857  
         H         H         0.27567   0.79248   0.76082   0.110293  
         H         H         0.27876   0.73796   0.74910   0.106728  
         H         H         0.27345   0.58599   0.77235   0.059961  
         H         H         0.35978   0.31158   0.80504   0.107150  
         H         H         0.40803   0.31349   0.79407   0.123048  
         H         H         0.41179   0.21348   0.80103   0.105233  
         H         H         0.36279   0.21189   0.80399   0.124271  
         H         H         0.45247   0.23946   0.81214   0.058566  
         H         H         0.19891   0.53299   0.75867   0.112056  
         H         H         0.20748   0.47468   0.78067   0.107630  
         H         H         0.28136   0.49473   0.65649   0.110129  
         H         H         0.27279   0.55311   0.63508   0.110216  
         H         H         0.20486   0.04095   0.77892   0.114012  
         H         H         0.20493   0.98175   0.80105   0.107389  
         H         H         0.28168   0.98373   0.69884   0.116011  
         H         H         0.28114   0.04251   0.67229   0.109355  
         H         H         0.13579   0.80233   0.77200   0.097100  
         H         H         0.08681   0.79885   0.76979   0.114406  
         H         H         0.09276   0.70040   0.75779   0.105014  
         H         H         0.14262   0.70349   0.76364   0.121405  
         H         H         0.04941   0.72434   0.74921   0.061253  
         H         H         0.21769   0.19106   0.69559   0.104710  
         H         H         0.21879   0.13371   0.70523   0.113419  
         H         H         0.30502   0.13144   0.72195   0.102841  
         H         H         0.30360   0.19012   0.70218   0.112987  
         H         H         0.27808   0.82806   0.89396   0.108889  
         H         H         0.27310   0.88771   0.85820   0.113178  
         H         H         0.17693   0.90025   0.57986   0.103799  
         H         H         0.18121   0.84259   0.59410   0.099659  
         H         H         0.19909   0.94672   0.64307   0.065694  
         H         H         0.28508   0.08104   0.76014   0.061734  
         H         H         0.21586   0.32057   0.80913   0.103371  
         H         H         0.20467   0.37796   0.78236   0.106176  
         H         H         0.28172   0.40065   0.70176   0.116741  
         H         H         0.29107   0.34480   0.70116   0.091948  
         H         H         0.21341   0.43279   0.72648   0.063442  
         H         H         0.28405   0.69356   0.75855   0.101204  
         H         H         0.28922   0.63766   0.75177   0.103129  
         H         H         0.20149   0.63060   0.70186   0.110835  
         H         H         0.19622   0.68706   0.71319   0.108449  
         H         H         0.48372   0.33683   0.78274   0.125490  
         H         H         0.48308   0.24256   0.71491   0.106583  
         H         H         0.00858   0.72214   0.71705   0.107403  
         H         H         0.01163   0.81758   0.77282   0.121894  
         N         N         0.71250   0.28760   0.80508   -0.345420           
         N         N         0.70732   0.23796   0.77741   -0.359759           
         N         N         0.78675   0.73011   0.75339   -0.375667           
         N         N         0.78770   0.78220   0.74816   -0.313386           
         N         N         0.92937   0.77308   0.73785   -0.301260           
         N         N         0.56507   0.29243   0.76875   -0.293036           
         N         N         0.74655   0.57744   0.72009   -0.303316           
         N         N         0.75889   0.07347   0.74189   -0.300622           
         N         N         0.72749   0.94915   0.73485   -0.295696           
         N         N         0.74817   0.44570   0.74417   -0.299985           
         C         C         0.73818   0.27621   0.80154   0.098666  
         C         C         0.76244   0.29158   0.79727   -0.027579           
         C         C         0.78411   0.27120   0.79296   -0.137287           
         C         C         0.73454   0.24445   0.78706   0.104459  
         C         C         0.75702   0.22419   0.78639   0.014687  
         C         C         0.78184   0.23907   0.79169   -0.149046           
         C         C         0.69508   0.26315   0.79510   0.282805  
         C         C         0.76022   0.74271   0.74095   0.108676  
         C         C         0.73512   0.72752   0.73279   0.009831  
         C         C         0.76026   0.77617   0.73510   0.107489  
         C         C         0.71200   0.78084   0.71102   -0.136633           
         C         C         0.95678   0.77084   0.73436   0.203426  
         C         C         0.80264   0.75430   0.75513   0.286569  
         C         C         0.73631   0.79674   0.71729   -0.022267           
         C         C         0.71153   0.74802   0.71858   -0.148435           
         C         C         0.76466   0.32596   0.78944   0.079372  
         C         C         0.73321   0.69335   0.73604   0.080026  
         C         C         0.72901   0.59267   0.75843   0.079410  
         C         C         0.73632   0.83164   0.70354   0.083140  
         C         C         0.75492   0.19026   0.78564   0.077396  
         C         C         0.83100   0.75355   0.74934   0.021901  
         C         C         0.66589   0.26588   0.78821   0.020974  
         C         C         0.65325   0.29250   0.81033   -0.123245           
         C         C         0.62464   0.29466   0.79367   -0.102832           
         C         C         0.60759   0.27046   0.75053   0.058416  
         C         C         0.62045   0.24381   0.72974   -0.126249           
         C         C         0.64923   0.24120   0.75045   -0.096718           
         C         C         0.57744   0.27154   0.72858   0.075926  
         C         C         0.74581   0.54462   0.72942   0.201808  
         C         C         0.77086   0.52797   0.73654   -0.140967           
         C         C         0.77280   0.49537   0.74482   -0.169642           
         C         C         0.74923   0.47815   0.74138   0.188309  
         C         C         0.72417   0.49473   0.73428   -0.139909           
         C         C         0.72229   0.52730   0.72771   -0.170744           
         C         C         0.75003   0.04309   0.73782   0.199530  
         C         C         0.77153   0.01730   0.77075   -0.145501           
         C         C         0.76472   0.98618   0.77314   -0.173980           
         C         C         0.73577   0.97991   0.73691   0.200076  
         C         C         0.71416   0.00571   0.70296   -0.146372           
         C         C         0.72097   0.03685   0.70061   -0.178475           
         C         C         0.75032   0.12439   0.79097   0.056211  
         C         C         0.84714   0.77966   0.76350   -0.130830           
         C         C         0.87366   0.77912   0.75147   -0.113831           
         C         C         0.88495   0.75242   0.72337   0.043660  
         C         C         0.86873   0.72646   0.70811   -0.124297           
         C         C         0.84225   0.72685   0.72152   -0.100616           
         C         C         0.91278   0.75096   0.71125   0.062544  
         C         C         0.77487   0.17237   0.75479   -0.133871           
         C         C         0.77274   0.14018   0.75704   -0.107887           
         C         C         0.73072   0.14188   0.82377   -0.115029           
         C         C         0.73280   0.17395   0.82111   -0.116237           
         C         C         0.71745   0.84753   0.75045   -0.136179           
         C         C         0.71751   0.88049   0.73782   -0.104064           
         C         C         0.73730   0.89885   0.68332   0.053765  
         C         C         0.75571   0.88345   0.63391   -0.121551           
         C         C         0.75493   0.85100   0.64028   -0.158698           
         C         C         0.74058   0.93250   0.67680   0.069213  
         C         C         0.74539   0.09137   0.79195   0.077558  
         C         C         0.79114   0.33857   0.81355   -0.133672           
         C         C         0.79237   0.37186   0.79298   -0.129344           
         C         C         0.76756   0.39394   0.75473   0.058211  
         C         C         0.74122   0.38156   0.73327   -0.092820           
         C         C         0.73974   0.34888   0.74632   -0.148994           
         C         C         0.76911   0.42819   0.74272   0.063307  
         C         C         0.71062   0.67693   0.76456   -0.139440           
         C         C         0.70924   0.64448   0.77048   -0.133852           
         C         C         0.73016   0.62697   0.74653   0.050258  
         C         C         0.75256   0.64325   0.71651   -0.092839           
         C         C         0.75407   0.67555   0.71202   -0.123517           
         C         C         0.53684   0.29038   0.75951   0.198186  
         C         C         0.52268   0.31672   0.77600   -0.142226           
         C         C         0.52189   0.26349   0.74008   -0.168596           
         C         C         0.97083   0.74369   0.72252   -0.164944           
         C         C         0.97168   0.79775   0.74911   -0.142719           
         H         H         0.71241   0.30297   0.87471   0.278960  
         H         H         0.79543   0.80344   0.75299   0.276631  
         H         H         0.80355   0.28095   0.78796   0.106814  
         H         H         0.80013   0.22523   0.79280   0.108609  
         H         H         0.69226   0.79496   0.69405   0.107654  
         H         H         0.69140   0.73833   0.70852   0.106330  
         H         H         0.71299   0.58060   0.80501   0.060227  
         H         H         0.66601   0.31157   0.84175   0.100787  
         H         H         0.61476   0.31500   0.81167   0.116511  
         H         H         0.60737   0.22516   0.69474   0.102556  
         H         H         0.65917   0.22088   0.73295   0.121514  
         H         H         0.56615   0.25256   0.67918   0.060456  
         H         H         0.78853   0.54183   0.73368   0.122710  
         H         H         0.79238   0.48359   0.74861   0.109989  
         H         H         0.70628   0.48103   0.73364   0.117573  
         H         H         0.70249   0.53949   0.71993   0.111030  
         H         H         0.79368   0.02244   0.79569   0.120923  
         H         H         0.78203   0.96639   0.80444   0.107938  
         H         H         0.69187   0.00076   0.67504   0.116418  
         H         H         0.70364   0.05674   0.66857   0.108035  
         H         H         0.83918   0.80032   0.78801   0.097091  
         H         H         0.88647   0.79884   0.76613   0.115350  
         H         H         0.87697   0.70610   0.68237   0.109720  
         H         H         0.82948   0.70714   0.70678   0.128443  
         H         H         0.91854   0.72996   0.67849   0.061034  
         H         H         0.79182   0.18430   0.72263   0.101174  
         H         H         0.78783   0.12710   0.72897   0.111745  
         H         H         0.71358   0.12980   0.85268   0.098575  
         H         H         0.71718   0.18692   0.84508   0.108672  
         H         H         0.70306   0.83322   0.80203   0.105149  
         H         H         0.70247   0.89259   0.77048   0.112649  
         H         H         0.77045   0.89758   0.58589   0.096111  
         H         H         0.76768   0.84198   0.58248   0.088610  
         H         H         0.75567   0.94343   0.61741   0.062207  
         H         H         0.72863   0.08222   0.83931   0.055859  
         H         H         0.81107   0.32221   0.84735   0.105329  
         H         H         0.81299   0.38094   0.80925   0.104987  
         H         H         0.72194   0.39865   0.70250   0.113497  
         H         H         0.71812   0.34174   0.71188   0.093463  
         H         H         0.78899   0.43744   0.73726   0.065997  
         H         H         0.69450   0.68920   0.78856   0.099582  
         H         H         0.69204   0.63208   0.79716   0.100528  
         H         H         0.76885   0.62979   0.69881   0.110728  
         H         H         0.77167   0.68758   0.69095   0.111240  
         H         H         0.53417   0.33732   0.79257   0.125008  
         H         H         0.53203   0.24256   0.72808   0.106729  
         H         H         0.95984   0.72268   0.70858   0.106350  
         H         H         0.96090   0.81850   0.75925   0.118760 

