
##########################################################################
#               Crystallographic Information Format file
#               Produced by PyCifRW module
#
#  This is a CIF file.  CIF has been adopted by the International
#  Union of Crystallography as the standard for data archiving and
#  transmission.
#
#  For information on this file format, follow the CIF links at
#  http://www.iucr.org
##########################################################################

data_image0

_cell_length_a                          41.8897
_cell_length_b                          42.3917
_cell_length_c                          7.77506
_cell_angle_alpha                       61.7272
_cell_angle_beta                        112.44
_cell_angle_gamma                       120.316
_symmetry_space_group_name_H-M          'P 1'
_space_group_name_Hall                  'P 1'
loop_
  _atom_site_type_symbol
  _atom_site_label
  _atom_site_fract_x
  _atom_site_fract_y
  _atom_site_fract_z
  _atom_site_charge
         H         H         0.52837   0.09102   0.49575   0.065632  
         H         H         0.21533   0.81417   0.50481   0.070044  
         H         H         0.24117   0.77393   0.65219   0.112793  
         H         H         0.26857   0.73500   0.65257   0.105791  
         H         H         0.36219   0.84048   0.42499   0.097857  
         H         H         0.33561   0.87944   0.43875   0.115394  
         H         H         0.55677   0.04765   0.68767   0.111740  
         H         H         0.58430   0.01048   0.66408   0.103648  
         H         H         0.67319   0.11796   0.40756   0.102264  
         H         H         0.64618   0.15507   0.43597   0.114625  
         H         H         0.28162   0.70919   0.53772   0.114009  
         H         H         0.30703   0.67302   0.49470   0.123410  
         H         H         0.41476   0.77027   0.46466   0.109466  
         H         H         0.38993   0.80595   0.51318   0.105521  
         H         H         0.59282   0.99370   0.45098   0.104807  
         H         H         0.62095   0.95486   0.44372   0.118495  
         H         H         0.73178   0.04022   0.56647   0.114221  
         H         H         0.70426   0.07817   0.57776   0.110382  
         H         H         0.42107   0.74179   0.31491   0.064958  
         H         H         0.74294   0.01492   0.43046   0.070978  
         H         H         0.36925   0.63192   0.44811   0.115999  
         H         H         0.46976   0.61544   0.56397   0.103107  
         H         H         0.47410   0.73149   0.34784   0.104922  
         H         H         0.68851   0.90764   0.51355   0.114855  
         H         H         0.78428   0.89261   0.53044   0.109713  
         H         H         0.79665   0.00400   0.47245   0.113444  
         H         H         0.36454   0.56817   0.51210   0.075755  
         H         H         0.51767   0.64875   0.39123   0.105407  
         H         H         0.58491   0.67747   0.39811   0.112398  
         H         H         0.59876   0.76699   0.57141   0.108517  
         H         H         0.53094   0.73990   0.54607   0.099944  
         H         H         0.66448   0.87186   0.30483   0.099169  
         H         H         0.62347   0.80711   0.27665   0.107945  
         H         H         0.70412   0.76139   0.72234   0.121269  
         H         H         0.74679   0.82731   0.73868   0.107762  
         H         H         0.62804   0.66738   0.70915   0.118273  
         H         H         0.65774   0.63122   0.69625   0.100420  
         H         H         0.71902   0.73489   0.26026   0.111037  
         H         H         0.68734   0.77039   0.26414   0.121988  
         H         H         0.65995   0.60501   0.49333   0.112773  
         H         H         0.76051   0.59994   0.50525   0.111968  
         H         H         0.76460   0.70690   0.46377   0.114391  
         H         H         0.65591   0.54706   0.49877   0.069408  
         H         H         0.34134   0.50036   0.74762   0.121111  
         H         H         0.30422   0.43630   0.70412   0.108650  
         H         H         0.39117   0.45680   0.45054   0.106107  
         H         H         0.42990   0.51851   0.51693   0.114151  
         H         H         0.63126   0.48725   0.60585   0.105419  
         H         H         0.59758   0.42048   0.60132   0.102748  
         H         H         0.69182   0.43316   0.43753   0.108490  
         H         H         0.72611   0.50013   0.44936   0.116175  
         H         H         0.26706   0.40001   0.50982   0.112429  
         H         H         0.23255   0.33576   0.46525   0.116755  
         H         H         0.33742   0.33363   0.51675   0.104982  
         H         H         0.37165   0.39643   0.56442   0.098145  
         H         H         0.56611   0.38825   0.39151   0.103078  
         H         H         0.52865   0.32230   0.36527   0.114550  
         H         H         0.63019   0.30265   0.56500   0.101422  
         H         H         0.66707   0.36724   0.59323   0.101482  
         H         H         0.30449   0.28355   0.47043   0.061160  
         H         H         0.59373   0.25646   0.45294   0.064213  
         H         H         0.19999   0.23223   0.46494   0.109565  
         H         H         0.19222   0.12608   0.47664   0.112436  
         H         H         0.29934   0.22456   0.47784   0.111563  
         H         H         0.49215   0.20756   0.51016   0.107948  
         H         H         0.47820   0.09796   0.52769   0.106301  
         H         H         0.58458   0.19549   0.46714   0.107650  
         H         H         0.14041   0.17618   0.48453   0.067944  
         H         H         0.22122   0.12180   0.28482   0.113590  
         H         H         0.25270   0.08506   0.29303   0.122100  
         H         H         0.34736   0.13340   0.70585   0.110374  
         H         H         0.31632   0.16977   0.69849   0.102803  
         H         H         0.43407   0.18923   0.39876   0.104518  
         H         H         0.36660   0.16208   0.38414   0.117853  
         H         H         0.36441   0.04586   0.63985   0.113594  
         H         H         0.43141   0.07311   0.64943   0.106830  
         H         H         0.26342   0.03331   0.69680   0.120169  
         H         H         0.22343   0.96611   0.70142   0.108932  
         H         H         0.28646   0.98183   0.31970   0.111039  
         H         H         0.32517   0.04972   0.30807   0.114565  
         H         H         0.17705   0.92782   0.52830   0.105873  
         H         H         0.16384   0.82145   0.51792   0.114066  
         H         H         0.27294   0.91662   0.51366   0.115743  
         H         H         0.11726   0.87363   0.55823   0.068183  
         H         H         0.06037   0.86524   0.40312   0.111372  
         H         H         0.99211   0.83587   0.39215   0.110227  
         H         H         0.98872   0.72258   0.54661   0.108794  
         H         H         0.05781   0.75242   0.55637   0.118746  
         H         H         0.08353   0.16248   0.34028   0.111633  
         H         H         0.01582   0.12969   0.34897   0.109205  
         H         H         0.02044   0.01780   0.56334   0.110277  
         H         H         0.08895   0.05103   0.55391   0.118627  
         H         H         0.97533   0.09063   0.58315   0.110082  
         H         H         0.90663   0.06008   0.58222   0.121926  
         H         H         0.89154   0.97873   0.34799   0.115054  
         H         H         0.95950   0.00956   0.34426   0.110876  
         H         H         0.94749   0.79501   0.60317   0.111093  
         H         H         0.87854   0.76594   0.59199   0.120745  
         H         H         0.86242   0.69143   0.31075   0.114285  
         H         H         0.93081   0.72090   0.31769   0.111607  
         H         H         0.84573   0.94456   0.52713   0.069815  
         H         H         0.81956   0.65409   0.50757   0.067297  
         H         H         0.52743   0.58223   0.01222   0.067176  
         H         H         0.21052   0.30325   0.05367   0.070033  
         H         H         0.22287   0.27888   0.91384   0.112743  
         H         H         0.25000   0.23983   0.90953   0.110484  
         H         H         0.36139   0.31982   0.07667   0.103677  
         H         H         0.33393   0.35965   0.07774   0.118173  
         H         H         0.54250   0.56282   0.85238   0.114089  
         H         H         0.56998   0.52220   0.86271   0.106185  
         H         H         0.67891   0.59288   0.11230   0.108916  
         H         H         0.65130   0.63370   0.10099   0.118100  
         H         H         0.28027   0.19810   0.09552   0.104070  
         H         H         0.30714   0.16023   0.06989   0.115910  
         H         H         0.39788   0.26711   0.82709   0.110467  
         H         H         0.37038   0.30495   0.84776   0.103876  
         H         H         0.59391   0.47580   0.05378   0.105997  
         H         H         0.62290   0.43680   0.05596   0.117895  
         H         H         0.72438   0.54034   0.93393   0.112000  
         H         H         0.69627   0.57868   0.93361   0.108148  
         H         H         0.42553   0.22462   0.00909   0.064626  
         H         H         0.74521   0.50236   -0.00289  0.068041  
         H         H         0.36916   0.12003   0.04056   0.108788  
         H         H         0.46215   0.10696   0.01050   0.106530  
         H         H         0.47596   0.21710   0.98515   0.105799  
         H         H         0.68582   0.39872   0.01258   0.115386  
         H         H         0.77934   0.38380   -0.00201  0.106389  
         H         H         0.79577   0.49260   0.99438   0.111619  
         H         H         0.36065   0.05815   0.06362   0.064520  
         H         H         0.52015   0.12627   0.10217   0.105801  
         H         H         0.58761   0.15405   0.11691   0.116821  
         H         H         0.58901   0.26972   0.86360   0.112987  
         H         H         0.52211   0.24218   0.86037   0.106354  
         H         H         0.67038   0.33285   0.20213   0.111910  
         H         H         0.62963   0.26574   0.20397   0.115231  
         H         H         0.68987   0.28236   0.80624   0.120065  
         H         H         0.73133   0.34900   0.80903   0.108354  
         H         H         0.60823   0.18381   0.79653   0.111111  
         H         H         0.64017   0.14745   0.81143   0.103783  
         H         H         0.73324   0.19490   0.23431   0.114183  
         H         H         0.70005   0.23056   0.22320   0.121342  
         H         H         0.65693   0.09408   0.02851   0.112432  
         H         H         0.75569   0.08813   0.02172   0.108327  
         H         H         0.76414   0.19203   0.04258   0.111620  
         H         H         0.65087   0.03747   0.00935   0.062190  
         H         H         0.32412   0.01207   0.95912   0.102932  
         H         H         0.28691   0.94718   0.93603   0.102801  
         H         H         0.38796   0.92690   0.12256   0.103311  
         H         H         0.42586   0.99346   0.14048   0.114072  
         H         H         0.61980   0.98255   0.02620   0.109503  
         H         H         0.58594   0.91801   0.99422   0.100549  
         H         H         0.68870   0.92186   0.96456   0.112568  
         H         H         0.72283   0.98770   0.99273   0.116607  
         H         H         0.26176   0.88143   0.07977   0.104019  
         H         H         0.22866   0.81342   0.08400   0.117768  
         H         H         0.32487   0.82540   0.94457   0.107933  
         H         H         0.35690   0.89322   0.92821   0.102323  
         H         H         0.57560   0.85706   0.14983   0.105039  
         H         H         0.53832   0.79094   0.12627   0.116736  
         H         H         0.61014   0.81728   0.76068   0.113916  
         H         H         0.64598   0.88436   0.77147   0.108889  
         H         H         0.30216   0.76484   0.08721   0.065873  
         H         H         0.59510   0.74884   0.99329   0.073532  
         H         H         0.19750   0.71054   0.06998   0.111677  
         H         H         0.19330   0.60884   0.04952   0.110238  
         H         H         0.29903   0.70813   0.07758   0.105764  
         H         H         0.49102   0.70313   0.96936   0.114136  
         H         H         0.47668   0.59281   -0.00113  0.109763  
         H         H         0.58580   0.68790   0.97780   0.114423  
         H         H         0.13967   0.65382   0.08839   0.069030  
         H         H         0.22512   0.57668   0.15447   0.107797  
         H         H         0.25552   0.54339   0.13000   0.116907  
         H         H         0.35147   0.65234   0.97890   0.114921  
         H         H         0.32050   0.68543   0.99416   0.102785  
         H         H         0.42645   0.67641   0.75649   0.100436  
         H         H         0.35848   0.64440   0.74849   0.113857  
         H         H         0.37478   0.54741   0.26389   0.101502  
         H         H         0.44109   0.57632   0.24520   0.099809  
         H         H         0.25844   0.55976   0.75402   0.124948  
         H         H         0.21472   0.49534   0.72169   0.109724  
         H         H         0.28999   0.44474   0.19134   0.098636  
         H         H         0.33136   0.50702   0.23412   0.107276  
         H         H         0.17257   0.43017   0.92967   0.107870  
         H         H         0.15665   0.31699   0.99387   0.113121  
         H         H         0.26743   0.40950   0.98415   0.114706  
         H         H         0.11012   0.37915   0.93230   0.070148  
         H         H         0.06531   0.33884   0.13666   0.112062  
         H         H         0.99776   0.30690   0.15674   0.111156  
         H         H         0.04468   0.27108   0.80431   0.120665  
         H         H         0.08494   0.64711   0.87922   0.112703  
         H         H         0.01649   0.61750   0.86572   0.108971  
         H         H         0.01680   0.50282   0.11225   0.109506  
         H         H         0.08590   0.53285   0.12598   0.116402  
         H         H         0.97656   0.23973   0.81896   0.110088  
         H         H         0.97249   0.58146   0.08002   0.109168  
         H         H         0.90333   0.55111   0.07273   0.119813  
         H         H         0.89044   0.46517   0.87762   0.113373  
         H         H         0.95879   0.49519   0.88489   0.110384  
         H         H         0.93716   0.29983   0.99103   0.108599  
         H         H         0.86946   0.26440   0.01841   0.119527  
         H         H         0.87083   0.15981   0.06484   0.112233  
         H         H         0.93728   0.19465   0.03779   0.108184  
         H         H         0.84167   0.43444   0.00521   0.066928  
         H         H         0.81435   0.14244   0.00869   0.066391  
         C         C         0.54746   0.61262   0.99381   0.080187  
         C         C         0.22943   0.33435   0.01403   0.087796  
         C         C         0.27650   0.32177   0.00090   0.200997  
         C         C         0.59487   0.60014   0.98490   0.199849  
         C         C         0.25320   0.28739   0.95593   -0.165841           
         C         C         0.26852   0.26526   0.95345   -0.110056           
         C         C         0.30776   0.27656   0.99371   0.055406  
         C         C         0.33098   0.31059   0.04224   -0.136599           
         C         C         0.31579   0.33291   0.04470   -0.150844           
         C         C         0.57212   0.56857   0.91583   -0.178744           
         C         C         0.58767   0.54581   0.92117   -0.131037           
         C         C         0.62634   0.55377   0.99292   0.053366  
         C         C         0.64896   0.58592   0.05712   -0.124972           
         C         C         0.63362   0.60876   0.05246   -0.158486           
         C         C         0.32369   0.25428   0.97672   0.059692  
         C         C         0.64291   0.53020   0.99443   0.059022  
         C         C         0.30575   0.21332   0.03439   -0.121073           
         C         C         0.32080   0.19195   0.02205   -0.154339           
         C         C         0.35506   0.21082   0.95527   0.194464  
         C         C         0.37251   0.25197   0.88938   -0.185736           
         C         C         0.35702   0.27320   0.90063   -0.135779           
         C         C         0.62232   0.49007   0.02456   -0.135817           
         C         C         0.63831   0.46805   0.02678   -0.144620           
         C         C         0.67563   0.48531   -0.00129  0.195210  
         C         C         0.69601   0.52567   0.96384   -0.164374           
         C         C         0.68009   0.54749   0.96368   -0.124441           
         C         C         0.40489   0.19684   0.98740   0.079913  
         C         C         0.42050   0.17164   -0.00022  0.063821  
         C         C         0.72445   0.47267   0.00514   0.080854  
         C         C         0.73904   0.44779   0.00642   0.065513  
         C         C         0.39825   0.13203   0.02501   -0.157597           
         C         C         0.41379   0.10886   0.03220   0.060055  
         C         C         0.45159   0.12559   0.01168   -0.145173           
         C         C         0.47489   0.16459   0.99490   0.072795  
         C         C         0.45863   0.18706   0.99173   -0.165485           
         C         C         0.71543   0.40934   0.01081   -0.148928           
         C         C         0.72940   0.38609   0.00591   0.064048  
         C         C         0.76785   0.40176   -0.00150  -0.179280           
         C         C         0.79182   0.43993   0.99551   0.063922  
         C         C         0.77700   0.46292   -0.00183  -0.157841           
         C         C         0.39000   0.06792   0.05460   0.083490  
         C         C         0.51516   0.18156   0.98672   0.040358  
         C         C         0.70431   0.34609   0.00636   0.049814  
         C         C         0.53487   0.15792   0.05043   -0.116258           
         C         C         0.57338   0.17356   0.05798   -0.176920           
         C         C         0.59405   0.21428   0.99535   0.177135  
         C         C         0.57436   0.23823   0.92325   -0.184967           
         C         C         0.53604   0.22224   0.92081   -0.107092           
         C         C         0.67469   0.32215   0.11362   -0.118623           
         C         C         0.65153   0.28426   0.11488   -0.173350           
         C         C         0.65647   0.26942   0.00348   0.170100  
         C         C         0.68565   0.29336   0.89349   -0.175579           
         C         C         0.70925   0.33075   0.89730   -0.123642           
         C         C         0.65167   0.20940   0.01050   0.164191  
         C         C         0.63527   0.18579   0.89521   -0.172442           
         C         C         0.65349   0.16495   0.90560   -0.115900           
         C         C         0.68909   0.16790   0.02652   0.048453  
         C         C         0.70578   0.19234   0.13839   -0.124275           
         C         C         0.68718   0.21236   0.13305   -0.174428           
         C         C         0.70813   0.14594   0.03320   0.066778  
         C         C         0.68699   0.10784   0.02815   -0.162301           
         C         C         0.70410   0.08687   0.02669   0.066679  
         C         C         0.74294   0.10439   0.02809   -0.162859           
         C         C         0.76452   0.14201   0.03596   0.058277  
         C         C         0.74698   0.16251   0.04043   -0.155137           
         C         C         0.68116   0.04761   0.01989   0.079526  
         C         C         0.37810   0.00744   0.05525   0.194013  
         C         C         0.67399   0.99004   0.00831   0.203206  
         C         C         0.33845   0.99340   -0.00051  -0.173080           
         C         C         0.31724   0.95642   0.98568   -0.121701           
         C         C         0.33441   0.93170   0.02576   0.061054  
         C         C         0.37397   0.94569   0.08464   -0.138548           
         C         C         0.39534   0.98272   0.09730   -0.158180           
         C         C         0.63512   0.96961   0.01228   -0.170126           
         C         C         0.61610   0.93296   -0.00382  -0.133809           
         C         C         0.63457   0.91507   0.97576   0.052387  
         C         C         0.67345   0.93530   0.97475   -0.122400           
         C         C         0.69270   0.97210   0.99130   -0.141939           
         C         C         0.31272   0.89247   0.01122   0.051365  
         C         C         0.61340   0.87591   0.96105   0.050259  
         C         C         0.27570   0.86955   0.04804   -0.109955           
         C         C         0.25710   0.83114   0.05378   -0.151571           
         C         C         0.27505   0.81368   0.02743   0.206325  
         C         C         0.31122   0.83712   0.97917   -0.163565           
         C         C         0.32934   0.87563   0.96994   -0.122599           
         C         C         0.58259   0.84899   0.05941   -0.130744           
         C         C         0.56178   0.81194   0.04862   -0.164600           
         C         C         0.57198   0.79976   0.94477   0.202367  
         C         C         0.60280   0.82615   0.84644   -0.182664           
         C         C         0.62295   0.86381   0.85336   -0.118177           
         C         C         0.27146   0.75374   0.06733   0.081146  
         C         C         0.25026   0.71360   0.06935   0.064257  
         C         C         0.56446   0.73961   0.96736   0.081561  
         C         C         0.54057   0.69982   0.96975   0.057507  
         C         C         0.21144   0.69485   0.06882   -0.167124           
         C         C         0.19141   0.65698   0.06402   0.058377  
         C         C         0.21022   0.63774   0.05975   -0.158215           
         C         C         0.24925   0.65526   0.06656   0.070091  
         C         C         0.26875   0.69353   0.07120   -0.171024           
         C         C         0.50195   0.68451   0.97110   -0.144497           
         C         C         0.47883   0.64579   0.98678   0.072966  
         C         C         0.49463   0.62270   0.99406   -0.166159           
         C         C         0.53282   0.63782   0.98797   0.058864  
         C         C         0.55604   0.67654   0.97906   -0.143579           
         C         C         0.43876   0.62862   -0.00172  0.055834  
         C         C         0.26903   0.63459   0.06654   0.023118  
         C         C         0.15089   0.63857   0.05983   0.080491  
         C         C         0.25226   0.59397   0.10802   -0.119590           
         C         C         0.26959   0.57478   0.09501   -0.198401           
         C         C         0.30520   0.59541   0.03876   0.186505  
         C         C         0.32336   0.63542   0.01219   -0.198211           
         C         C         0.30547   0.65423   0.02411   -0.109932           
         C         C         0.41492   0.64786   0.86661   -0.109450           
         C         C         0.37638   0.62997   0.86550   -0.164351           
         C         C         0.36107   0.59345   0.00945   0.172245  
         C         C         0.38518   0.57490   0.14636   -0.172704           
         C         C         0.42313   0.59161   0.13743   -0.123209           
         C         C         0.29842   0.53865   0.99500   0.174493  
         C         C         0.26515   0.53434   0.85031   -0.168999           
         C         C         0.24046   0.49795   0.83330   -0.133907           
         C         C         0.24888   0.46483   0.95540   0.052449  
         C         C         0.28296   0.46986   0.09247   -0.122841           
         C         C         0.30694   0.50574   0.11555   -0.171541           
         C         C         0.22302   0.42513   0.95216   0.068671  
         C         C         0.18408   0.41105   0.94165   -0.173412           
         C         C         0.16019   0.37222   0.95608   0.059243  
         C         C         0.17550   0.34707   0.98170   -0.156995           
         C         C         0.21399   0.36072   0.98942   0.062164  
         C         C         0.23748   0.39975   0.97439   -0.146964           
         C         C         0.11993   0.35798   0.94888   0.072520  
         C         C         0.09051   0.59179   0.01149   0.205456  
         C         C         0.05944   0.30763   0.96554   0.199840  
         C         C         0.04565   0.31781   0.06310   -0.179152           
         C         C         0.00766   0.29968   0.07478   -0.131734           
         C         C         0.98214   0.27077   0.98986   0.051668  
         C         C         0.99606   0.26122   0.88995   -0.131830           
         C         C         0.03398   0.27884   0.87985   -0.161838           
         C         C         0.07034   0.61549   0.93605   -0.180138           
         C         C         0.03167   0.59873   0.92746   -0.130888           
         C         C         0.01156   0.55793   0.99081   0.052455  
         C         C         0.03169   0.53444   0.06089   -0.133588           
         C         C         0.07035   0.55103   0.06992   -0.159477           
         C         C         0.94221   0.25019   0.00827   0.059545  
         C         C         0.97072   0.54025   0.98510   0.058304  
         C         C         0.95443   0.55607   0.03519   -0.131221           
         C         C         0.91597   0.53909   0.03292   -0.154806           
         C         C         0.89230   0.50543   0.98188   0.196501  
         C         C         0.90834   0.48995   0.92732   -0.176101           
         C         C         0.94685   0.50700   0.93038   -0.133192           
         C         C         0.92256   0.26912   0.00728   -0.136782           
         C         C         0.88473   0.24956   0.02169   -0.153177           
         C         C         0.86480   0.21010   0.03793   0.200745  
         C         C         0.88465   0.19067   0.04450   -0.173904           
         C         C         0.92242   0.21041   0.02885   -0.130360           
         C         C         0.83182   0.45511   0.99421   0.070642  
         C         C         0.80457   0.15969   0.03102   0.074101  
         C         C         0.54898   0.11849   0.52065   0.082553  
         C         C         0.23601   0.84291   0.51419   0.082351  
         C         C         0.28573   0.82991   0.53732   0.199319  
         C         C         0.59873   0.10433   0.55396   0.197777  
         C         C         0.26746   0.78879   0.59926   -0.169318           
         C         C         0.28312   0.76665   0.59929   -0.122780           
         C         C         0.31751   0.78451   0.53477   0.053883  
         C         C         0.33606   0.82553   0.47948   -0.133172           
         C         C         0.32110   0.84776   0.48392   -0.146384           
         C         C         0.58171   0.06316   0.62174   -0.188472           
         C         C         0.59733   0.04221   0.60890   -0.131587           
         C         C         0.63037   0.06134   0.53009   0.056722  
         C         C         0.64786   0.10233   0.47040   -0.120783           
         C         C         0.63269   0.12338   0.48440   -0.156386           
         C         C         0.33305   0.76163   0.51988   0.058355  
         C         C         0.64644   0.03923   0.51292   0.056581  
         C         C         0.31077   0.72320   0.52005   -0.121875           
         C         C         0.32490   0.70261   0.49405   -0.155395           
         C         C         0.36198   0.71956   0.46266   0.189153  
         C         C         0.38516   0.75724   0.47273   -0.178381           
         C         C         0.37094   0.77749   0.50097   -0.131568           
         C         C         0.62327   0.00412   0.47471   -0.132335           
         C         C         0.63875   0.98243   0.46864   -0.153843           
         C         C         0.67806   0.99511   0.49895   0.202147  
         C         C         0.70132   0.03048   0.53446   -0.169357           
         C         C         0.68570   0.05199   0.54060   -0.109504           
         C         C         0.40414   0.71027   0.37570   0.074202  
         C         C         0.41999   0.68441   0.39806   0.055516  
         C         C         0.72480   0.98360   0.47483   0.084696  
         C         C         0.74058   0.95819   0.49205   0.066048  
         C         C         0.39921   0.64385   0.44977   -0.144501           
         C         C         0.41738   0.61929   0.50837   0.061452  
         C         C         0.45630   0.63540   0.51245   -0.143654           
         C         C         0.47738   0.67575   0.45449   0.079500  
         C         C         0.45843   0.69997   0.39430   -0.170573           
         C         C         0.71814   0.91882   0.51072   -0.148712           
         C         C         0.73333   0.89479   0.52377   0.071401  
         C         C         0.77205   0.91067   0.52348   -0.175152           
         C         C         0.79491   0.94984   0.50527   0.059027  
         C         C         0.77879   0.97361   0.48768   -0.155801           
         C         C         0.39527   0.57726   0.55648   0.099385  
         C         C         0.51832   0.69238   0.46314   0.031894  
         C         C         0.70861   0.85460   0.52457   0.046896  
         C         C         0.53515   0.67492   0.42948   -0.110383           
         C         C         0.57364   0.69120   0.43417   -0.186010           
         C         C         0.59786   0.72501   0.48365   0.188175  
         C         C         0.58129   0.74165   0.52685   -0.188418           
         C         C         0.54251   0.72619   0.51132   -0.116727           
         C         C         0.67312   0.84765   0.39866   -0.123000           
         C         C         0.64986   0.81108   0.38258   -0.176782           
         C         C         0.66060   0.77951   0.50052   0.168587  
         C         C         0.69573   0.78584   0.62998   -0.176997           
         C         C         0.71957   0.82297   0.63891   -0.128994           
         C         C         0.65483   0.72092   0.48452   0.166022  
         C         C         0.64716   0.68175   0.60684   -0.168541           
         C         C         0.66414   0.66156   0.59921   -0.120755           
         C         C         0.69057   0.68022   0.47613   0.049662  
         C         C         0.69887   0.71986   0.35792   -0.125544           
         C         C         0.68097   0.73991   0.35924   -0.175521           
         C         C         0.70974   0.65878   0.47789   0.068829  
         C         C         0.69001   0.61938   0.49207   -0.168122           
         C         C         0.70810   0.59831   0.50035   0.063248  
         C         C         0.74679   0.61669   0.49764   -0.164430           
         C         C         0.76690   0.65587   0.48251   0.059913  
         C         C         0.74815   0.67675   0.47129   -0.157448           
         C         C         0.68626   0.55796   0.50690   0.074580  
         C         C         0.38816   0.51444   0.63055   0.204513  
         C         C         0.68066   0.49917   0.51842   0.201039  
         C         C         0.35237   0.49075   0.68342   -0.181508           
         C         C         0.33129   0.45469   0.65686   -0.115728           
         C         C         0.34439   0.44127   0.57282   0.053121  
         C         C         0.38039   0.46526   0.52202   -0.132584           
         C         C         0.40218   0.50021   0.55656   -0.170353           
         C         C         0.64426   0.47595   0.56399   -0.161300           
         C         C         0.62537   0.43812   0.56239   -0.124583           
         C         C         0.64153   0.42183   0.51395   0.054085  
         C         C         0.67853   0.44460   0.47705   -0.114962           
         C         C         0.69773   0.48237   0.48054   -0.147063           
         C         C         0.32234   0.40349   0.54125   0.054153  
         C         C         0.61961   0.38308   0.49399   0.062136  
         C         C         0.28273   0.38554   0.51336   -0.122933           
         C         C         0.26313   0.34954   0.48727   -0.145854           
         C         C         0.28206   0.32980   0.48847   0.207884  
         C         C         0.32165   0.34807   0.51243   -0.167688           
         C         C         0.34104   0.38384   0.53866   -0.131257           
         C         C         0.58020   0.36951   0.42970   -0.137681           
         C         C         0.55907   0.33276   0.41348   -0.159442           
         C         C         0.57632   0.30782   0.45900   0.196582  
         C         C         0.61586   0.32150   0.52079   -0.174879           
         C         C         0.63689   0.35826   0.53729   -0.121467           
         C         C         0.27450   0.27254   0.47033   0.077313  
         C         C         0.25187   0.23264   0.47065   0.064658  
         C         C         0.56439   0.24706   0.46090   0.086452  
         C         C         0.54038   0.20615   0.48293   0.057350  
         C         C         0.21295   0.21525   0.46770   -0.162584           
         C         C         0.19157   0.17705   0.46795   0.057935  
         C         C         0.20942   0.15593   0.47295   -0.158655           
         C         C         0.24821   0.17230   0.47967   0.067943  
         C         C         0.26923   0.21098   0.47744   -0.158811           
         C         C         0.50268   0.18929   0.50517   -0.145967           
         C         C         0.47927   0.15045   0.51852   0.076605  
         C         C         0.49545   0.12806   0.52033   -0.167046           
         C         C         0.53345   0.14357   0.51038   0.064067  
         C         C         0.55569   0.18315   0.48596   -0.156948           
         C         C         0.43886   0.13373   0.52335   0.039023  
         C         C         0.26643   0.14931   0.48838   0.049105  
         C         C         0.15124   0.15902   0.46844   0.077044  
         C         C         0.24879   0.12428   0.37876   -0.121558           
         C         C         0.26657   0.10371   0.38155   -0.180223           
         C         C         0.30253   0.10678   0.49851   0.166263  
         C         C         0.31985   0.13093   0.61198   -0.173831           
         C         C         0.30221   0.15198   0.60543   -0.115563           
         C         C         0.41921   0.15764   0.45451   -0.112821           
         C         C         0.38064   0.14229   0.44545   -0.178716           
         C         C         0.35975   0.10159   0.50962   0.177105  
         C         C         0.37927   0.07739   0.58307   -0.182831           
         C         C         0.41765   0.09318   0.58840   -0.109721           
         C         C         0.29745   0.04643   0.50290   0.173168  
         C         C         0.26820   0.02218   0.61240   -0.178625           
         C         C         0.24550   0.98425   0.61326   -0.123839           
         C         C         0.25157   0.96843   0.51072   0.048577  
         C         C         0.28111   0.99281   0.40297   -0.118622           
         C         C         0.30311   0.03117   0.39613   -0.176200           
         C         C         0.22792   0.92781   0.51652   0.063175  
         C         C         0.18944   0.91079   0.52617   -0.176673           
         C         C         0.16630   0.87269   0.52566   0.062552  
         C         C         0.18202   0.85102   0.51773   -0.156995           
         C         C         0.22034   0.86696   0.51343   0.064869  
         C         C         0.24309   0.90538   0.51255   -0.149421           
         C         C         0.12623   0.85660   0.52872   0.072070  
         C         C         0.09139   0.10879   0.45335   0.202963  
         C         C         0.06425   0.81041   0.48820   0.198604  
         C         C         0.04509   0.83382   0.43992   -0.178083           
         C         C         0.00651   0.81724   0.43333   -0.131411           
         C         C         0.98531   0.77691   0.47173   0.055762  
         C         C         0.00440   0.75383   0.51487   -0.133853           
         C         C         0.04300   0.77027   0.52168   -0.153527           
         C         C         0.07014   0.13075   0.39421   -0.175848           
         C         C         0.03191   0.11223   0.39893   -0.130283           
         C         C         0.01315   0.07125   0.46009   0.057084  
         C         C         0.03427   0.04949   0.51445   -0.136405           
         C         C         0.07259   0.06789   0.51029   -0.157387           
         C         C         0.94441   0.75954   0.46524   0.053941  
         C         C         0.97259   0.05221   0.46482   0.055187  
         C         C         0.95695   0.06631   0.53015   -0.133065           
         C         C         0.91867   0.04922   0.53139   -0.160380           
         C         C         0.89444   0.01679   0.47074   0.198626  
         C         C         0.90984   0.00263   0.40392   -0.181733           
         C         C         0.94824   0.02010   0.40159   -0.131616           
         C         C         0.92887   0.77236   0.53879   -0.135121           
         C         C         0.89036   0.75605   0.53414   -0.160083           
         C         C         0.86589   0.72559   0.45897   0.200253  
         C         C         0.88111   0.71330   0.38025   -0.179738           
         C         C         0.91966   0.72998   0.38394   -0.131553           
         C         C         0.83490   0.96555   0.50216   0.070384  
         C         C         0.80727   0.67383   0.48332   0.078156  
         N         N         0.26335   0.34723   0.99086   -0.287631           
         N         N         0.58209   0.62511   0.98234   -0.289734           
         N         N         0.36909   0.18661   0.95876   -0.280190           
         N         N         0.68949   0.46032   0.01004   -0.290923           
         N         N         0.63341   0.23081   0.00294   -0.138919           
         N         N         0.40236   0.04511   0.05920   -0.299214           
         N         N         0.69614   0.02733   0.02036   -0.309789           
         N         N         0.25459   0.77451   0.04181   -0.303239           
         N         N         0.54958   0.76192   0.94345   -0.282780           
         N         N         0.32180   0.57579   0.01856   -0.151332           
         N         N         0.12943   0.60634   0.02582   -0.293150           
         N         N         0.09747   0.32257   0.95886   -0.286987           
         N         N         0.82652   0.19351   0.04738   -0.298862           
         N         N         0.85401   0.49058   0.98487   -0.292424           
         N         N         0.27156   0.85466   0.52583   -0.285774           
         N         N         0.58475   0.12844   0.55159   -0.284395           
         N         N         0.37389   0.69624   0.44206   -0.277068           
         N         N         0.69132   0.96993   0.50700   -0.292756           
         N         N         0.63701   0.74163   0.48873   -0.134227           
         N         N         0.41086   0.55272   0.62980   -0.309321           
         N         N         0.70197   0.53771   0.51376   -0.304999           
         N         N         0.25975   0.29260   0.47439   -0.306235           
         N         N         0.55211   0.27019   0.45428   -0.301182           
         N         N         0.32030   0.08528   0.50152   -0.138792           
         N         N         0.13012   0.12492   0.45518   -0.294577           
         N         N         0.10295   0.82429   0.49782   -0.290396           
         N         N         0.82748   0.71019   0.46173   -0.290061           
         N         N         0.85625   0.00190   0.47582   -0.290114 

