
##########################################################################
#               Crystallographic Information Format file
#               Produced by PyCifRW module
#
#  This is a CIF file.  CIF has been adopted by the International
#  Union of Crystallography as the standard for data archiving and
#  transmission.
#
#  For information on this file format, follow the CIF links at
#  http://www.iucr.org
##########################################################################

data_image0

_cell_length_a                          47.0439
_cell_length_b                          47.2475
_cell_length_c                          9.09981
_cell_angle_alpha                       94.7739
_cell_angle_beta                        68.6447
_cell_angle_gamma                       120.082
_symmetry_space_group_name_H-M          'P 1'
_space_group_name_Hall                  'P 1'
loop_
  _atom_site_type_symbol
  _atom_site_label
  _atom_site_fract_x
  _atom_site_fract_y
  _atom_site_fract_z
  _atom_site_charge
         C         C         0.49287   0.49776   0.16567   -0.022953           
         C         C         0.45981   0.49831   0.19525   0.058544  
         C         C         0.43793   0.47822   0.11305   -0.122389           
         C         C         0.40628   0.47668   0.13643   -0.184422           
         C         C         0.39567   0.49635   0.24057   0.203927  
         C         C         0.41714   0.51635   0.32465   -0.161434           
         C         C         0.44805   0.51673   0.30432   -0.121764           
         H         H         0.46366   0.53226   0.37203   0.103906  
         C         C         0.48694   0.46367   0.16483   0.053219  
         C         C         0.45343   0.43686   0.25667   -0.124850           
         C         C         0.44625   0.40451   0.25681   -0.168292           
         C         C         0.47292   0.39747   0.16753   0.207653  
         C         C         0.50618   0.42379   0.07260   -0.190252           
         C         C         0.51284   0.45592   0.07079   -0.104859           
         N         N         0.36688   0.49905   0.24984   -0.286913           
         C         C         0.33847   0.47347   0.24414   0.073147  
         C         C         0.31077   0.47636   0.22260   0.053673  
         C         C         0.27834   0.44808   0.23563   -0.131338           
         C         C         0.25223   0.45077   0.21076   -0.136100           
         C         C         0.25767   0.48170   0.17004   0.071302  
         C         C         0.29043   0.50990   0.15597   -0.131534           
         C         C         0.31634   0.50734   0.18221   -0.101288           
         N         N         0.46563   0.36494   0.17485   -0.284136           
         C         C         0.48957   0.36009   0.18552   0.064721  
         C         C         0.48629   0.32785   0.18921   0.050153  
         C         C         0.50958   0.32421   0.23765   -0.130389           
         C         C         0.50660   0.29366   0.24994   -0.136270           
         C         C         0.48070   0.26573   0.21029   0.064461  
         C         C         0.45808   0.26974   0.15700   -0.135832           
         C         C         0.46048   0.30012   0.14833   -0.103341           
         H         H         0.44660   0.46419   0.02611   0.097772  
         H         H         0.39081   0.46209   0.06584   0.108265  
         H         H         0.40874   0.53099   0.40828   0.119201  
         H         H         0.43261   0.44177   0.32880   0.101999  
         H         H         0.42042   0.38436   0.32987   0.121767  
         H         H         0.52650   0.41851   -0.00362  0.108524  
         H         H         0.53847   0.47534   0.99331   0.102515  
         H         H         0.33427   0.44847   0.25273   0.068011  
         H         H         0.27360   0.42395   0.26734   0.106475  
         H         H         0.22699   0.42870   0.22534   0.106824  
         H         H         0.29574   0.53397   0.11971   0.106405  
         H         H         0.34166   0.52906   0.17016   0.110846  
         H         H         0.51374   0.38057   0.19787   0.062742  
         H         H         0.52944   0.34548   0.27056   0.105734  
         H         H         0.52360   0.29107   0.29611   0.107868  
         H         H         0.43895   0.24884   0.11892   0.110856  
         H         H         0.44294   0.30313   0.10796   0.117334  
         C         C         0.51633   0.00637   0.14118   -0.020895           
         C         C         0.51297   0.97327   0.12804   0.053897  
         C         C         0.54161   0.96996   0.02371   -0.118877           
         C         C         0.54024   0.93976   0.01282   -0.192340           
         C         C         0.50975   0.91109   0.10679   0.209265  
         C         C         0.48065   0.91377   0.20860   -0.173899           
         C         C         0.48258   0.94411   0.22056   -0.111179           
         H         H         0.46021   0.94533   0.30592   0.100736  
         C         C         0.55325   0.03396   0.10733   0.057962  
         C         C         0.57405   0.03084   0.17659   -0.126256           
         C         C         0.60791   0.05647   0.15724   -0.161797           
         C         C         0.62176   0.08709   0.07342   0.203249  
         C         C         0.60220   0.08980   0.99445   -0.176774           
         C         C         0.56892   0.06352   0.00930   -0.113837           
         N         N         0.50721   0.88020   0.10281   -0.279620           
         C         C         0.53127   0.87768   0.12727   0.071126  
         C         C         0.53155   0.84690   0.12496   0.048328  
         C         C         0.55334   0.84419   0.18874   -0.129727           
         C         C         0.55271   0.81463   0.19831   -0.131052           
         C         C         0.53085   0.78683   0.14046   0.066148  
         C         C         0.50994   0.79008   0.07160   -0.136829           
         C         C         0.50990   0.81933   0.06529   -0.107112           
         N         N         0.65374   0.11302   0.07961   -0.285448           
         C         C         0.65822   0.14237   0.08577   0.065872  
         C         C         0.68904   0.17051   0.10629   0.055612  
         C         C         0.69151   0.20150   0.11351   -0.129403           
         C         C         0.71942   0.22860   0.14160   -0.133241           
         C         C         0.74628   0.22603   0.16304   0.064373  
         C         C         0.74365   0.19482   0.15509   -0.131278           
         C         C         0.71574   0.16766   0.12775   -0.107450           
         H         H         0.56576   0.99177   0.95137   0.104797  
         H         H         0.56258   0.93798   0.92949   0.111794  
         H         H         0.45709   0.89184   0.28346   0.116160  
         H         H         0.56277   0.00810   0.25094   0.102230  
         H         H         0.62316   0.05408   0.21583   0.122183  
         H         H         0.61358   0.11241   0.91887   0.107950  
         H         H         0.55450   0.06613   0.94640   0.108248  
         H         H         0.55219   0.89877   0.15820   0.062129  
         H         H         0.56998   0.86530   0.23620   0.103310  
         H         H         0.56828   0.81266   0.25645   0.104100  
         H         H         0.49412   0.76945   0.01938   0.109425  
         H         H         0.49362   0.82154   0.01257   0.114151  
         H         H         0.63781   0.14728   0.08387   0.064833  
         H         H         0.67101   0.20406   0.09777   0.105271  
         H         H         0.72008   0.25198   0.14934   0.108369  
         H         H         0.76418   0.19213   0.16918   0.106674  
         H         H         0.71384   0.14371   0.12367   0.116967  
         C         C         0.00991   0.51864   0.15642   -0.025695           
         C         C         0.04315   0.54811   0.15673   0.057546  
         C         C         0.05334   0.57954   0.09315   -0.116913           
         C         C         0.08440   0.60768   0.09031   -0.187841           
         C         C         0.10702   0.60569   0.15122   0.204172  
         C         C         0.09740   0.57445   0.21335   -0.164069           
         C         C         0.06595   0.54673   0.21889   -0.118188           
         H         H         0.05856   0.52317   0.27188   0.099440  
         C         C         0.98156   0.52525   0.16600   0.056584  
         C         C         0.97385   0.54664   0.26899   -0.121925           
         C         C         0.94651   0.55184   0.28024   -0.164251           
         C         C         0.92475   0.53473   0.19305   0.205624  
         C         C         0.93280   0.51380   0.08770   -0.183429           
         C         C         0.96121   0.51013   0.07157   -0.119955           
         N         N         0.13851   0.63302   0.15289   -0.284713           
         C         C         0.13967   0.66090   0.17728   0.060885  
         C         C         0.17138   0.69123   0.17555   0.056646  
         C         C         0.16947   0.71988   0.21338   -0.127203           
         C         C         0.19880   0.74907   0.21815   -0.129262           
         C         C         0.23140   0.75097   0.18534   0.068787  
         C         C         0.23330   0.72224   0.14443   -0.131828           
         C         C         0.20408   0.69305   0.13954   -0.103708           
         N         N         0.89769   0.54061   0.20398   -0.286752           
         C         C         0.86849   0.51635   0.19736   0.071566  
         C         C         0.84034   0.52024   0.18708   0.056870  
         C         C         0.80846   0.49191   0.19339   -0.128682           
         C         C         0.78112   0.49437   0.18094   -0.139103           
         C         C         0.78449   0.52528   0.16000   0.072387  
         C         C         0.81664   0.55361   0.15316   -0.133051           
         C         C         0.84387   0.55124   0.16700   -0.099804           
         H         H         0.03692   0.58155   0.04090   0.111241  
         H         H         0.09218   0.63119   0.03360   0.111379  
         H         H         0.11427   0.57291   0.26455   0.119789  
         H         H         0.98907   0.55884   0.34378   0.103856  
         H         H         0.94065   0.56812   0.36142   0.122849  
         H         H         0.91776   0.50210   0.01193   0.105436  
         H         H         0.96803   0.49511   0.98487   0.096674  
         H         H         0.11597   0.66290   0.20502   0.061920  
         H         H         0.14435   0.71881   0.24126   0.103782  
         H         H         0.19616   0.77051   0.25183   0.106256  
         H         H         0.25839   0.72317   0.11369   0.105358  
         H         H         0.20587   0.67112   0.10775   0.114608  
         H         H         0.86339   0.49091   0.19833   0.065864  
         H         H         0.80519   0.46773   0.20975   0.105069  
         H         H         0.75652   0.47202   0.18978   0.107446  
         H         H         0.82049   0.57786   0.13285   0.106933  
         H         H         0.86854   0.57323   0.16098   0.113504  
         C         C         0.52570   0.52582   0.13976   -0.028211           
         C         C         0.55651   0.52308   0.13076   0.054995  
         C         C         0.58992   0.54044   0.00716   -0.121697           
         C         C         0.61818   0.53707   0.00148   -0.192634           
         C         C         0.61355   0.51523   0.11580   0.204610  
         C         C         0.58000   0.49733   0.23768   -0.163169           
         C         C         0.55283   0.50249   0.24731   -0.119086           
         H         H         0.52777   0.49052   0.34772   0.093052  
         C         C         0.53282   0.56004   0.12781   0.056426  
         C         C         0.55985   0.58552   0.17357   -0.121129           
         C         C         0.56598   0.61755   0.17451   -0.163818           
         C         C         0.54463   0.62564   0.13308   0.201994  
         C         C         0.51919   0.60101   0.07701   -0.187844           
         C         C         0.51380   0.56932   0.07318   -0.113357           
         N         N         0.64084   0.51033   0.11328   -0.263652           
         C         C         0.66872   0.53479   0.12873   0.069004  
         C         C         0.69828   0.53210   0.13080   0.052997  
         C         C         0.72349   0.55739   0.18451   -0.134019           
         C         C         0.75121   0.55522   0.19449   -0.132692           
         C         C         0.75532   0.52788   0.14794   0.069718  
         C         C         0.73017   0.50281   0.09173   -0.131840           
         C         C         0.70213   0.50466   0.08435   -0.100708           
         N         N         0.55029   0.65771   0.14304   -0.288458           
         C         C         0.52358   0.66173   0.17195   0.068074  
         C         C         0.52636   0.69383   0.16941   0.058909  
         C         C         0.49688   0.69515   0.17310   -0.127888           
         C         C         0.49843   0.72514   0.16354   -0.135592           
         C         C         0.52941   0.75512   0.15195   0.064037  
         C         C         0.55865   0.75355   0.15169   -0.134843           
         C         C         0.55733   0.72365   0.15948   -0.101030           
         H         H         0.59379   0.55678   0.91515   0.106092  
         H         H         0.64400   0.55082   0.90653   0.100423  
         H         H         0.57634   0.48094   0.32864   0.121445  
         H         H         0.57552   0.57961   0.21419   0.107292  
         H         H         0.58613   0.63637   0.21522   0.122121  
         H         H         0.50453   0.60722   0.03001   0.111471  
         H         H         0.49459   0.55139   0.02586   0.107083  
         H         H         0.67099   0.55906   0.14727   0.064510  
         H         H         0.72065   0.57861   0.22263   0.102082  
         H         H         0.76923   0.57450   0.24362   0.107583  
         H         H         0.73323   0.48189   0.05028   0.102404  
         H         H         0.68289   0.48515   0.04134   0.115392  
         H         H         0.49666   0.64050   0.19835   0.058783  
         H         H         0.47270   0.67223   0.18181   0.104693  
         H         H         0.47522   0.72543   0.16726   0.105468  
         H         H         0.58299   0.77633   0.14174   0.107536  
         H         H         0.58009   0.72265   0.15735   0.114804  
         C         C         0.48779   0.01142   0.18724   -0.032598           
         C         C         0.48944   0.04342   0.21648   0.055579  
         C         C         0.46463   0.04840   0.18729   -0.114766           
         C         C         0.46530   0.07817   0.20235   -0.188353           
         C         C         0.49112   0.10485   0.24808   0.200351  
         C         C         0.51560   0.10006   0.28090   -0.165319           
         C         C         0.51425   0.06996   0.26887   -0.108573           
         H         H         0.53271   0.06689   0.30075   0.103963  
         C         C         0.45197   0.98358   0.20254   0.061159  
         C         C         0.42163   0.97405   0.34238   -0.125850           
         C         C         0.38914   0.94645   0.35601   -0.165141           
         C         C         0.38622   0.92680   0.23109   0.203424  
         C         C         0.41591   0.93724   0.08811   -0.181767           
         C         C         0.44778   0.96557   0.07439   -0.125516           
         N         N         0.49485   0.13610   0.25394   -0.289327           
         C         C         0.46764   0.13931   0.28233   0.064982  
         C         C         0.47114   0.17143   0.26757   0.057855  
         C         C         0.44123   0.17358   0.28704   -0.131345           
         C         C         0.44429   0.20398   0.26625   -0.137408           
         C         C         0.47729   0.23335   0.22751   0.066662  
         C         C         0.50711   0.23096   0.20958   -0.135237           
         C         C         0.50422   0.20072   0.22845   -0.098695           
         N         N         0.35375   0.89844   0.24558   -0.274742           
         C         C         0.35348   0.87118   0.21356   0.073636  
         C         C         0.32228   0.84112   0.20647   0.053970  
         C         C         0.31970   0.81045   0.22111   -0.125091           
         C         C         0.29008   0.78136   0.21788   -0.138015           
         C         C         0.26233   0.78176   0.19375   0.062061  
         C         C         0.26548   0.81278   0.17599   -0.132405           
         C         C         0.29456   0.84180   0.18393   -0.110969           
         H         H         0.44533   0.02866   0.14581   0.108454  
         H         H         0.44710   0.08147   0.16883   0.110659  
         H         H         0.53489   0.12022   0.32118   0.120279  
         H         H         0.42348   0.98782   0.44376   0.101842  
         H         H         0.36618   0.93880   0.46616   0.122323  
         H         H         0.41330   0.92340   0.98746   0.108877  
         H         H         0.47057   0.97416   0.96330   0.094883  
         H         H         0.44059   0.11794   0.31600   0.061098  
         H         H         0.41546   0.15111   0.31866   0.104376  
         H         H         0.42082   0.20517   0.28326   0.108356  
         H         H         0.53294   0.25328   0.17722   0.105751  
         H         H         0.52725   0.19881   0.21242   0.112119  
         H         H         0.37707   0.86931   0.19128   0.071747  
         H         H         0.34081   0.80947   0.23966   0.110855  
         H         H         0.28813   0.75792   0.23650   0.111779  
         H         H         0.24539   0.81421   0.15001   0.110677  
         H         H         0.29695   0.86560   0.16860   0.117246  
         C         C         0.00511   0.48707   0.14590   -0.025188           
         C         C         0.97036   0.45655   0.17290   0.056025  
         C         C         0.96940   0.42888   0.09768   -0.121702           
         C         C         0.93771   0.39991   0.11545   -0.190359           
         C         C         0.90499   0.39716   0.21065   0.207850  
         C         C         0.90551   0.42433   0.28923   -0.168510           
         C         C         0.93728   0.45285   0.27262   -0.113604           
         H         H         0.93650   0.47317   0.33469   0.102405  
         C         C         0.03497   0.48100   0.11210   0.059327  
         C         C         0.02980   0.45546   0.20682   -0.127792           
         C         C         0.05699   0.44998   0.19219   -0.163460           
         C         C         0.09139   0.47102   0.08289   0.211062  
         C         C         0.09663   0.49533   0.97993   -0.182179           
         C         C         0.06873   0.49977   0.99265   -0.115069           
         N         N         0.87267   0.36981   0.21990   -0.281257           
         C         C         0.86696   0.34032   0.23806   0.066684  
         C         C         0.83573   0.31144   0.22457   0.048720  
         C         C         0.82698   0.27949   0.27068   -0.129866           
         C         C         0.79753   0.25186   0.25524   -0.138830           
         C         C         0.77628   0.25504   0.18905   0.064025  
         C         C         0.78528   0.28727   0.14373   -0.134921           
         C         C         0.81412   0.31484   0.16202   -0.114025           
         N         N         0.11864   0.46661   0.08323   -0.272642           
         C         C         0.14666   0.49191   0.09336   0.068662  
         C         C         0.17572   0.48954   0.10264   0.056533  
         C         C         0.20128   0.51585   0.15084   -0.132783           
         C         C         0.22784   0.51342   0.17233   -0.136813           
         C         C         0.23003   0.48467   0.14450   0.068596  
         C         C         0.20459   0.45860   0.09368   -0.128297           
         C         C         0.17796   0.46086   0.07307   -0.102402           
         H         H         0.99422   0.43053   0.02152   0.103577  
         H         H         0.93798   0.37969   0.04957   0.112021  
         H         H         0.88050   0.42247   0.36497   0.118620  
         H         H         0.00357   0.43994   0.29524   0.099038  
         H         H         0.05265   0.43079   0.27018   0.124294  
         H         H         0.12282   0.51049   0.88958   0.102917  
         H         H         0.07358   0.51883   0.91232   0.107396  
         H         H         0.88561   0.33584   0.26368   0.068508  
         H         H         0.84296   0.27636   0.32213   0.110146  
         H         H         0.79054   0.22749   0.29716   0.109090  
         H         H         0.77027   0.29066   0.08712   0.110461  
         H         H         0.82130   0.33954   0.12385   0.115386  
         H         H         0.14896   0.51630   0.10390   0.063612  
         H         H         0.19953   0.53799   0.17555   0.104128  
         H         H         0.24645   0.53356   0.21581   0.107539  
         H         H         0.20649   0.43662   0.06686   0.101453  
         H         H         0.15842   0.44078   0.03356   0.115690  
         C         C         0.47381   0.47424   0.67391   -0.025632           
         C         C         0.44187   0.47634   0.70158   0.050138  
         C         C         0.41627   0.45319   0.64225   -0.121900           
         C         C         0.38747   0.45562   0.65016   -0.189834           
         C         C         0.38275   0.48147   0.72033   0.205177  
         C         C         0.40711   0.50372   0.78778   -0.172225           
         C         C         0.43552   0.50085   0.78069   -0.103231           
         H         H         0.45339   0.51809   0.83604   0.108572  
         C         C         0.46752   0.43999   0.67158   0.054498  
         C         C         0.44158   0.41619   0.80406   -0.126463           
         C         C         0.43601   0.38441   0.81114   -0.167829           
         C         C         0.45680   0.37539   0.68474   0.207575  
         C         C         0.48161   0.39847   0.54900   -0.183229           
         C         C         0.48652   0.43001   0.54214   -0.114876           
         N         N         0.35681   0.48736   0.71552   -0.284079           
         C         C         0.32535   0.46310   0.73658   0.070093  
         C         C         0.29881   0.46757   0.71181   0.051480  
         C         C         0.26400   0.44082   0.75176   -0.133515           
         C         C         0.23836   0.44421   0.72636   -0.137052           
         C         C         0.24662   0.47451   0.65980   0.071410  
         C         C         0.28160   0.50123   0.61956   -0.131804           
         C         C         0.30722   0.49788   0.64452   -0.098940           
         N         N         0.45147   0.34347   0.69458   -0.274390           
         C         C         0.47833   0.34058   0.67702   0.074325  
         C         C         0.47645   0.30874   0.67844   0.051723  
         C         C         0.50227   0.30666   0.71229   -0.128724           
         C         C         0.50078   0.27665   0.72151   -0.138140           
         C         C         0.47401   0.24769   0.69205   0.065498  
         C         C         0.44884   0.25025   0.65305   -0.134384           
         C         C         0.44970   0.28000   0.64812   -0.102973           
         H         H         0.42008   0.43368   0.58355   0.105381  
         H         H         0.36958   0.43869   0.59373   0.110680  
         H         H         0.40289   0.52294   0.84796   0.121353  
         H         H         0.42582   0.42298   0.90438   0.107122  
         H         H         0.41652   0.36664   0.91607   0.123904  
         H         H         0.49648   0.39113   0.44766   0.102270  
         H         H         0.50558   0.44694   0.43430   0.106185  
         H         H         0.31717   0.43776   0.77449   0.064231  
         H         H         0.25708   0.41736   0.80533   0.103085  
         H         H         0.21131   0.42356   0.76238   0.107056  
         H         H         0.28877   0.52451   0.56312   0.107837  
         H         H         0.33438   0.51824   0.60962   0.115948  
         H         H         0.50411   0.36235   0.66502   0.067465  
         H         H         0.52301   0.32874   0.73645   0.108671  
         H         H         0.52003   0.27551   0.75617   0.110636  
         H         H         0.42894   0.22869   0.62188   0.105680  
         H         H         0.43033   0.28175   0.61694   0.117639  
         C         C         0.51422   0.99151   0.64666   -0.029463           
         C         C         0.51314   0.95942   0.64943   0.057813  
         C         C         0.53819   0.95402   0.52775   -0.121753           
         C         C         0.53678   0.92377   0.52641   -0.193165           
         C         C         0.50976   0.89751   0.64639   0.207801  
         C         C         0.48514   0.90291   0.77040   -0.160333           
         C         C         0.48745   0.93336   0.77267   -0.119731           
         H         H         0.46832   0.93665   0.87140   0.101200  
         C         C         0.54975   0.02102   0.61505   0.057067  
         C         C         0.57371   0.01913   0.66671   -0.133738           
         C         C         0.60631   0.04651   0.65127   -0.159661           
         C         C         0.61651   0.07753   0.58414   0.202889  
         C         C         0.59402   0.07918   0.52061   -0.177729           
         C         C         0.56167   0.05160   0.53503   -0.105135           
         N         N         0.50527   0.86591   0.64332   -0.273507           
         C         C         0.53079   0.86152   0.63323   0.068063  
         C         C         0.52730   0.82898   0.62184   0.048918  
         C         C         0.55246   0.82371   0.64332   -0.127438           
         C         C         0.54913   0.79270   0.63619   -0.136422           
         C         C         0.52105   0.76589   0.60313   0.065995  
         C         C         0.49622   0.77165   0.57922   -0.135215           
         C         C         0.49897   0.80233   0.59018   -0.102163           
         N         N         0.64803   0.10452   0.58780   -0.287367           
         C         C         0.65129   0.13344   0.59519   0.062237  
         C         C         0.68200   0.16229   0.61235   0.055067  
         C         C         0.68277   0.19255   0.62759   -0.131947           
         C         C         0.71069   0.22016   0.65291   -0.135631           
         C         C         0.73922   0.21893   0.66328   0.066525  
         C         C         0.73831   0.18849   0.64716   -0.136585           
         C         C         0.71040   0.16080   0.62275   -0.103365           
         H         H         0.55893   0.97375   0.43189   0.108786  
         H         H         0.55585   0.91978   0.42946   0.104189  
         H         H         0.46474   0.88310   0.86605   0.121209  
         H         H         0.56582   0.99567   0.72355   0.101069  
         H         H         0.62374   0.04486   0.69798   0.120535  
         H         H         0.60262   0.10214   0.45561   0.112087  
         H         H         0.54527   0.05360   0.48270   0.102597  
         H         H         0.55593   0.88188   0.63743   0.069341  
         H         H         0.57418   0.84396   0.67053   0.107383  
         H         H         0.56814   0.78912   0.66077   0.110621  
         H         H         0.47494   0.75193   0.54771   0.107361  
         H         H         0.47976   0.80660   0.57174   0.116007  
         H         H         0.63002   0.13747   0.59760   0.064400  
         H         H         0.66096   0.19417   0.62110   0.107345  
         H         H         0.71017   0.24297   0.66760   0.107509  
         H         H         0.76007   0.18670   0.65279   0.108201  
         H         H         0.70975   0.13740   0.61240   0.116524  
         C         C         0.99539   0.51101   0.66643   -0.023808           
         C         C         0.02817   0.54161   0.66109   0.059427  
         C         C         0.04040   0.57081   0.56857   -0.116717           
         C         C         0.07127   0.59962   0.56124   -0.183907           
         C         C         0.09153   0.60011   0.64444   0.205573  
         C         C         0.07981   0.57084   0.73468   -0.160299           
         C         C         0.04817   0.54263   0.74695   -0.122414           
         H         H         0.03853   0.52069   0.82299   0.097142  
         C         C         0.96641   0.51580   0.67002   0.051477  
         C         C         0.96249   0.54196   0.74215   -0.116671           
         C         C         0.93527   0.54666   0.74744   -0.171535           
         C         C         0.91018   0.52476   0.68332   0.203710  
         C         C         0.91432   0.49903   0.60756   -0.187056           
         C         C         0.94217   0.49520   0.59911   -0.113674           
         N         N         0.12286   0.62792   0.64350   -0.283995           
         C         C         0.12660   0.65681   0.63266   0.062035  
         C         C         0.15850   0.68660   0.63263   0.052999  
         C         C         0.16065   0.71734   0.62947   -0.127108           
         C         C         0.18997   0.74589   0.63954   -0.137940           
         C         C         0.21802   0.74455   0.65427   0.070463  
         C         C         0.21614   0.71373   0.65272   -0.135021           
         C         C         0.18707   0.68530   0.64210   -0.103022           
         N         N         0.88398   0.53079   0.68476   -0.282829           
         C         C         0.85287   0.50618   0.70333   0.067968  
         C         C         0.82596   0.51056   0.68354   0.054009  
         C         C         0.79212   0.48306   0.71048   -0.132919           
         C         C         0.76629   0.48663   0.68840   -0.139464           
         C         C         0.77346   0.51780   0.63932   0.066657  
         C         C         0.80751   0.54524   0.61207   -0.126772           
         C         C         0.83335   0.54173   0.63318   -0.097899           
         H         H         0.02584   0.57043   0.49839   0.103482  
         H         H         0.08074   0.62151   0.48494   0.104438  
         H         H         0.09547   0.57155   0.79959   0.116084  
         H         H         0.98071   0.55838   0.79800   0.109854  
         H         H         0.93225   0.56656   0.80580   0.122338  
         H         H         0.89674   0.48349   0.54686   0.111200  
         H         H         0.94577   0.47611   0.53499   0.102104  
         H         H         0.10530   0.66017   0.62938   0.063408  
         H         H         0.13869   0.71847   0.62155   0.100586  
         H         H         0.19083   0.76936   0.64125   0.108861  
         H         H         0.23816   0.71254   0.65912   0.108390  
         H         H         0.18542   0.66151   0.64269   0.115052  
         H         H         0.84536   0.48065   0.73378   0.064848  
         H         H         0.78631   0.45897   0.75020   0.103536  
         H         H         0.73996   0.46539   0.71230   0.108585  
         H         H         0.81362   0.56926   0.56971   0.105862  
         H         H         0.85988   0.56262   0.60971   0.116845  
         C         C         0.50691   0.50157   0.65041   -0.027300           
         C         C         0.53860   0.50041   0.63759   0.055820  
         C         C         0.57269   0.52739   0.55260   -0.110431           
         C         C         0.60344   0.52840   0.54049   -0.192730           
         C         C         0.60160   0.50165   0.60927   0.206996  
         C         C         0.56796   0.47404   0.68796   -0.165017           
         C         C         0.53730   0.47379   0.70527   -0.114316           
         H         H         0.51198   0.45273   0.77434   0.104482  
         C         C         0.51360   0.53559   0.63238   0.058009  
         C         C         0.53384   0.56068   0.70716   -0.127305           
         C         C         0.54028   0.59253   0.68896   -0.160135           
         C         C         0.52503   0.60005   0.60212   0.201594  
         C         C         0.50583   0.57539   0.52197   -0.176533           
         C         C         0.50130   0.54420   0.53439   -0.121192           
         N         N         0.63107   0.50050   0.60158   -0.279118           
         C         C         0.65843   0.52690   0.61063   0.062121  
         C         C         0.68926   0.52604   0.60509   0.054420  
         C         C         0.71580   0.55238   0.64788   -0.132041           
         C         C         0.74348   0.55001   0.65686   -0.140281           
         C         C         0.74564   0.52142   0.62096   0.069268  
         C         C         0.71967   0.49569   0.57170   -0.136776           
         C         C         0.69192   0.49782   0.56454   -0.097191           
         N         N         0.53106   0.63215   0.59664   -0.283401           
         C         C         0.50629   0.63691   0.59675   0.067346  
         C         C         0.51095   0.66974   0.59128   0.055043  
         C         C         0.48212   0.67335   0.60699   -0.134036           
         C         C         0.48535   0.70432   0.60982   -0.132687           
         C         C         0.51765   0.73302   0.59560   0.062083  
         C         C         0.54665   0.72911   0.57647   -0.129372           
         C         C         0.54347   0.69830   0.57509   -0.098191           
         H         H         0.57493   0.54765   0.49179   0.107506  
         H         H         0.62914   0.54924   0.47119   0.106224  
         H         H         0.56651   0.45338   0.74151   0.115465  
         H         H         0.54469   0.55512   0.78014   0.106171  
         H         H         0.55610   0.61187   0.74612   0.121348  
         H         H         0.49641   0.58148   0.44331   0.107504  
         H         H         0.48802   0.52552   0.46757   0.095608  
         H         H         0.65879   0.55036   0.63073   0.063264  
         H         H         0.71406   0.57438   0.67864   0.102825  
         H         H         0.76298   0.56985   0.69741   0.111793  
         H         H         0.72198   0.47413   0.53664   0.105694  
         H         H         0.67153   0.47800   0.52856   0.113107  
         H         H         0.48005   0.61620   0.60648   0.066403  
         H         H         0.45683   0.65144   0.61962   0.104710  
         H         H         0.46227   0.70610   0.62622   0.105531  
         H         H         0.57227   0.75075   0.56057   0.105528  
         H         H         0.56585   0.69550   0.56175   0.116531  
         C         C         0.48410   0.99338   0.67600   -0.024245           
         C         C         0.48429   0.02504   0.70067   0.057328  
         C         C         0.46772   0.03373   0.62655   -0.124600           
         C         C         0.46827   0.06347   0.64204   -0.177635           
         C         C         0.48654   0.08655   0.73005   0.199085  
         C         C         0.50292   0.07795   0.80640   -0.159623           
         C         C         0.50081   0.04747   0.79562   -0.120576           
         H         H         0.51267   0.04091   0.85919   0.098637  
         C         C         0.44949   0.96484   0.68385   0.048732  
         C         C         0.41770   0.96487   0.77149   -0.114640           
         C         C         0.38499   0.93964   0.77400   -0.179238           
         C         C         0.38220   0.91203   0.69513   0.209347  
         C         C         0.41346   0.91125   0.61006   -0.192562           
         C         C         0.44622   0.93731   0.60243   -0.106313           
         N         N         0.49073   0.11811   0.73611   -0.281744           
         C         C         0.46497   0.12187   0.74141   0.068010  
         C         C         0.46818   0.15407   0.72937   0.055714  
         C         C         0.43780   0.15568   0.75241   -0.132823           
         C         C         0.43970   0.18581   0.74044   -0.132644           
         C         C         0.47216   0.21574   0.70343   0.064359  
         C         C         0.50258   0.21391   0.68007   -0.127892           
         C         C         0.50072   0.18389   0.69305   -0.100577           
         N         N         0.34942   0.88731   0.69348   -0.281293           
         C         C         0.33919   0.85697   0.73002   0.072845  
         C         C         0.30767   0.82927   0.71305   0.045951  
         C         C         0.29459   0.79765   0.78398   -0.125269           
         C         C         0.26517   0.77050   0.76687   -0.139082           
         C         C         0.24829   0.77394   0.67538   0.065977  
         C         C         0.26130   0.80575   0.60552   -0.137293           
         C         C         0.29043   0.83299   0.62427   -0.104748           
         H         H         0.45532   0.01724   0.55030   0.096895  
         H         H         0.45673   0.06992   0.57607   0.108243  
         H         H         0.51651   0.09531   0.87706   0.120994  
         H         H         0.41876   0.98513   0.83962   0.108486  
         H         H         0.36102   0.94044   0.84083   0.121362  
         H         H         0.41190   0.89063   0.54359   0.112590  
         H         H         0.46978   0.93636   0.53084   0.104643  
         H         H         0.43876   0.10050   0.75581   0.062844  
         H         H         0.41235   0.13291   0.78215   0.103263  
         H         H         0.41561   0.18626   0.76278   0.106382  
         H         H         0.52820   0.23650   0.64825   0.104672  
         H         H         0.52435   0.18278   0.67379   0.114709  
         H         H         0.35407   0.85064   0.77707   0.067571  
         H         H         0.30733   0.79471   0.85557   0.102331  
         H         H         0.25449   0.74645   0.82803   0.100817  
         H         H         0.24930   0.80879   0.53039   0.103397  
         H         H         0.30109   0.85738   0.56664   0.113020  
         C         C         0.99212   0.48014   0.66845   -0.028745           
         C         C         0.95741   0.44919   0.70290   0.060919  
         C         C         0.95530   0.42444   0.60301   -0.123999           
         C         C         0.92329   0.39608   0.62036   -0.186753           
         C         C         0.89173   0.39121   0.74174   0.207440  
         C         C         0.89354   0.41516   0.84674   -0.166461           
         C         C         0.92588   0.44326   0.82885   -0.113659           
         H         H         0.92661   0.46118   0.91239   0.105338  
         C         C         0.02250   0.47510   0.63350   0.058336  
         C         C         0.01728   0.44671   0.70571   -0.133973           
         C         C         0.04524   0.44174   0.68290   -0.166906           
         C         C         0.08009   0.46553   0.58818   0.211059  
         C         C         0.08538   0.49279   0.50565   -0.182105           
         C         C         0.05713   0.49718   0.52781   -0.112808           
         N         N         0.85919   0.36381   0.75220   -0.284230           
         C         C         0.85646   0.33517   0.74849   0.069456  
         C         C         0.82642   0.30590   0.72941   0.045249  
         C         C         0.82021   0.27441   0.76501   -0.126962           
         C         C         0.79154   0.24620   0.74783   -0.138243           
         C         C         0.76887   0.24850   0.68832   0.065504  
         C         C         0.77588   0.28032   0.64963   -0.132282           
         C         C         0.80374   0.30844   0.67149   -0.113590           
         N         N         0.10743   0.46083   0.58342   -0.281858           
         C         C         0.13599   0.48614   0.58955   0.064887  
         C         C         0.16521   0.48360   0.59513   0.057204  
         C         C         0.19190   0.51026   0.63614   -0.130902           
         C         C         0.21840   0.50748   0.65641   -0.140524           
         C         C         0.21933   0.47807   0.63421   0.070319  
         C         C         0.19300   0.45176   0.58885   -0.134685           
         C         C         0.16639   0.45433   0.56985   -0.097592           
         H         H         0.97942   0.42804   0.50838   0.103128  
         H         H         0.92206   0.37808   0.53654   0.110389  
         H         H         0.86946   0.41096   0.94436   0.120239  
         H         H         0.99067   0.42860   0.78266   0.106884  
         H         H         0.04102   0.42026   0.74320   0.122532  
         H         H         0.11175   0.51015   0.42253   0.106749  
         H         H         0.06199   0.51851   0.46422   0.104251  
         H         H         0.87722   0.33190   0.75901   0.069658  
         H         H         0.83762   0.27229   0.81025   0.111014  
         H         H         0.78623   0.22212   0.78394   0.110503  
         H         H         0.76005   0.28300   0.59578   0.107520  
         H         H         0.80928   0.33289   0.63966   0.118027  
         H         H         0.13844   0.51056   0.60127   0.063437  
         H         H         0.19115   0.53300   0.65602   0.103425  
         H         H         0.23793   0.52773   0.69517   0.111375  
         H         H         0.19418   0.42934   0.56596   0.104648  
         H         H         0.14602   0.43400   0.53547   0.115386 

