data_crystal

_audit_creation_method 'AiiDA-DDEC plugin'

_cell_length_a        25.65878
_cell_length_b        25.77113
_cell_length_c         7.80169

_cell_angle_alpha     82.13707
_cell_angle_beta     68.64122
_cell_angle_gamma     120.20421

_symmetry_space_group_name_Hall 'P 1'
_symmetry_space_group_name_H-M  'P 1'

loop_
_symmetry_equiv_pos_as_xyz
 'x,y,z'

loop_
_atom_site_label
_atom_site_type_symbol
_atom_site_fract_x
_atom_site_fract_y
_atom_site_fract_z
_atom_site_charge
H          H       0.66609   0.09342   0.79480   0.10585
H          H       0.71402   0.20609   0.78769   0.11238
H          H       0.39818   0.91442   0.69644   0.11805
H          H       0.50976   0.68945   0.76788   0.11275
H          H       0.34502   0.51872   0.77206   0.11181
H          H       0.40027   0.46379   0.78856   0.11479
H          H       0.62761   0.52184   0.77654   0.11197
H          H       0.68988   0.47210   0.78246   0.11417
H          H       0.47186   0.44450   0.70132   0.06388
H          H       0.50988   0.08679   0.69094   0.11175
H          H       0.55756   0.19972   0.68784   0.11383
H          H       0.58660  -0.00066   0.77179   0.06638
H          H       0.12475   0.46024   0.70613   0.11734
H          H       0.34264   0.80006   0.70841   0.11122
H          H       0.49384   0.79566   0.81105   0.11191
H          H       0.54680   0.90688   0.80946   0.11102
H          H       0.92075   0.54486   0.78751   0.10486
H          H       0.80729   0.47985   0.79310   0.11485
H          H       0.56801   0.63565   0.77572   0.12059
H          H       0.23798   0.52020   0.70683   0.11114
H          H       0.21968   0.67402   0.76849   0.11324
H          H       0.10727   0.61462   0.77332   0.11459
H          H       0.47953   0.35654   0.71249   0.10711
H          H       0.53969   0.30577   0.72999   0.11435
H          H       0.95021   0.39804   0.71053   0.10915
H          H       0.83587   0.33275   0.71612   0.11045
H          H       0.02469   0.56347   0.74220   0.06537
H          H       0.33450   0.90762   0.20501   0.10636
H          H       0.28681   0.79525   0.20978   0.11257
H          H       0.60709   0.08999   0.27907   0.11894
H          H       0.48898   0.30925   0.24354   0.11100
H          H       0.64728   0.47743   0.26745   0.11159
H          H       0.58810   0.52914   0.26652   0.11470
H          H       0.36483   0.47334   0.24996   0.10994
H          H       0.30694   0.52684   0.22801   0.11258
H          H       0.51653   0.54747   0.34479   0.06281
H          H       0.49426   0.91594   0.29125   0.11238
H          H       0.44610   0.80314   0.29588   0.11408
H          H       0.41243   0.00049   0.23313   0.06585
H          H       0.87731   0.53973   0.29278   0.11823
H          H       0.66180   0.20397   0.27024   0.11422
H          H       0.50538   0.20504   0.19148   0.11179
H          H       0.45316   0.09424   0.19057   0.11019
H          H       0.08266   0.45607   0.20128   0.10608
H          H       0.19387   0.52060   0.20734   0.11568
H          H       0.42694   0.36028   0.24911   0.11850
H          H       0.76390   0.48124   0.29184   0.11154
H          H       0.78072   0.32694   0.22450   0.11085
H          H       0.89241   0.38437   0.22338   0.11589
H          H       0.51186   0.63615   0.32381   0.10633
H          H       0.45622   0.69063   0.29033   0.11287
H          H       0.05080   0.60164   0.27638   0.10963
H          H       0.16392   0.66730   0.27687   0.10995
H          H       0.98442   0.44228   0.20715   0.06755
C          C       0.65569   0.35707   0.75617   0.36708
C          C       0.61824   0.38572   0.75705   0.01294
C          C       0.64328   0.44704   0.77000  -0.10318
C          C       0.60907   0.47475   0.76576  -0.10681
C          C       0.54919   0.44219   0.74730   0.06013
C          C       0.52472   0.38126   0.73213  -0.12473
C          C       0.55825   0.35291   0.74029  -0.09876
C          C       0.51249   0.47029   0.74069   0.07941
C          C       0.49014   0.54724   0.77500   0.21022
C          C       0.42572   0.51370   0.77963  -0.18226
C          C       0.39393   0.54383   0.77267  -0.08642
C          C       0.42412   0.60769   0.76668  -0.01195
C          C       0.48710   0.64058   0.76886  -0.09350
C          C       0.51936   0.61072   0.77362  -0.16118
C          C       0.38963   0.63891   0.75945   0.37219
C          C       0.66585   0.27474   0.74208   0.37028
C          C       0.63849   0.20937   0.73814   0.00952
C          C       0.58050   0.17564   0.71165  -0.09789
C          C       0.55421   0.11349   0.71271  -0.10889
C          C       0.58471   0.08303   0.74395   0.05971
C          C       0.64286   0.11705   0.76906  -0.12500
C          C       0.66960   0.17955   0.76616  -0.09846
C          C       0.55724   0.01714   0.75276   0.07644
C          C       0.47633   0.91898   0.74862   0.21340
C          C       0.50305   0.88480   0.78330  -0.17716
C          C       0.47369   0.82238   0.78437  -0.08927
C          C       0.41603   0.79148   0.75558  -0.01120
C          C       0.38777   0.82445   0.72763  -0.08760
C          C       0.41792   0.88731   0.72323  -0.15181
C          C       0.38589   0.72570   0.75375   0.37222
C          C       0.10806   0.53255   0.73986   0.20610
C          C       0.13554   0.59359   0.75647  -0.16477
C          C       0.19840   0.62719   0.75452  -0.08392
C          C       0.23552   0.60070   0.73922  -0.00380
C          C       0.20866   0.54006   0.72143  -0.09563
C          C       0.14614   0.50682   0.72172  -0.15620
C          C       0.30087   0.63563   0.74517   0.37290
C          C       0.74845   0.36520   0.75560   0.37020
C          C       0.81507   0.40276   0.75398   0.01078
C          C       0.85530   0.37921   0.73199  -0.09849
C          C       0.91822   0.41511   0.72841  -0.11180
C          C       0.94259   0.47549   0.74789   0.06549
C          C       0.90244   0.49875   0.76948  -0.11550
C          C       0.83921   0.46272   0.77393  -0.09384
C          C       0.00853   0.51489   0.74386   0.08176
C          C       0.34352   0.64274   0.24722   0.36810
C          C       0.37842   0.61213   0.25689   0.00885
C          C       0.35227   0.55032   0.24661  -0.09992
C          C       0.38388   0.52058   0.26034  -0.10635
C          C       0.44199   0.55148   0.28718   0.05859
C          C       0.46753   0.61278   0.29998  -0.12512
C          C       0.43674   0.64322   0.28174  -0.09353
C          C       0.47721   0.52240   0.30072   0.07964
C          C       0.50170   0.44708   0.26332   0.20899
C          C       0.56514   0.48062   0.26440  -0.18051
C          C       0.59894   0.45214   0.26374  -0.08590
C          C       0.57166   0.39001   0.25678  -0.01120
C          C       0.50898   0.35668   0.25281  -0.09492
C          C       0.47487   0.38496   0.25521  -0.16002
C          C       0.60859   0.36074   0.25268   0.37318
C          C       0.33529   0.72654   0.25166   0.37100
C          C       0.36347   0.79237   0.25289   0.00796
C          C       0.42246   0.82672   0.27484  -0.09813
C          C       0.44906   0.88898   0.27322  -0.10842
C          C       0.41737   0.91877   0.24821   0.05919
C          C       0.35851   0.88438   0.22640  -0.12652
C          C       0.33192   0.82201   0.22802  -0.09682
C          C       0.44391   0.98424   0.24272   0.07679
C          C       0.52590   0.08353   0.24057   0.21262
C          C       0.49790   0.11699   0.21220  -0.17515
C          C       0.52700   0.17926   0.21228  -0.08915
C          C       0.58574   0.21082   0.23606  -0.00896
C          C       0.61560   0.17880   0.25611  -0.09258
C          C       0.58576   0.11611   0.25915  -0.15088
C          C       0.61486   0.27586   0.24344   0.37114
C          C       0.89312   0.46714   0.25533   0.20729
C          C       0.86503   0.40624   0.23814  -0.16634
C          C       0.80244   0.37370   0.23872  -0.08013
C          C       0.76585   0.40081   0.25523  -0.00509
C          C       0.79304   0.46114   0.27522  -0.09431
C          C       0.85558   0.49348   0.27516  -0.15681
C          C       0.69989   0.36577   0.25269   0.37174
C          C       0.25183   0.63548   0.24230   0.37069
C          C       0.18538   0.59749   0.24333   0.01035
C          C       0.14505   0.62077   0.26200  -0.09971
C          C       0.08286   0.58478   0.26178  -0.11303
C          C       0.05975   0.52494   0.23914   0.06746
C          C       0.09990   0.50182   0.22120  -0.11913
C          C       0.16195   0.53761   0.22313  -0.09253
C          C       0.99556   0.48661   0.23368   0.07987
N          N       0.71445   0.39201   0.76503  -0.40724
N          N       0.52745   0.52208   0.77677  -0.29317
N          N       0.33010   0.60483   0.75367  -0.41403
N          N       0.62928   0.29829   0.74363  -0.40979
N          N       0.50201   0.98245   0.73959  -0.29481
N          N       0.41988   0.69957   0.75844  -0.41862
N          N       0.04465   0.49351   0.74380  -0.31221
N          N       0.32652   0.69582   0.74605  -0.40901
N          N       0.72600   0.30664   0.74495  -0.40988
N          N       0.28498   0.60804   0.23748  -0.40697
N          N       0.46346   0.47122   0.26211  -0.29176
N          N       0.66897   0.39541   0.25388  -0.41421
N          N       0.37116   0.70241   0.25369  -0.41057
N          N       0.50054   0.02021   0.24829  -0.29301
N          N       0.57917   0.30071   0.24880  -0.41783
N          N       0.95572   0.50490   0.25592  -0.30791
N          N       0.67510   0.30630   0.24624  -0.40829
N          N       0.27510   0.69471   0.24861  -0.41062

