data_crystal

_audit_creation_method 'AiiDA-DDEC plugin'

_cell_length_a        30.40750
_cell_length_b        29.78730
_cell_length_c         7.55712

_cell_angle_alpha     101.81031
_cell_angle_beta     80.94776
_cell_angle_gamma     121.19667

_symmetry_space_group_name_Hall 'P 1'
_symmetry_space_group_name_H-M  'P 1'

loop_
_symmetry_equiv_pos_as_xyz
 'x,y,z'

loop_
_atom_site_label
_atom_site_type_symbol
_atom_site_fract_x
_atom_site_fract_y
_atom_site_fract_z
_atom_site_charge
H          H       0.96852   0.43734   0.33305   0.13281
H          H       0.56794   0.53545   0.22067   0.13554
H          H       0.44247   0.00664   0.16882   0.12767
H          H       0.03122   0.60483   0.09885   0.12888
H          H       0.38101   0.42026   0.34496   0.13443
H          H       0.57249   0.97478   0.34269   0.12993
H          H       0.27391   0.70770   0.34158   0.10029
H          H       0.28997   0.56999   0.17403   0.09467
H          H       0.41988   0.72046   0.37184   0.09281
H          H       0.72557   0.30901   0.26799   0.09741
H          H       0.68687   0.42021   0.15193   0.10709
H          H       0.56869   0.25945   0.20048   0.10753
H          H       0.36916   0.36124   0.50774   0.11758
H          H       0.64073   0.05495   0.44169   0.10244
H          H       0.96691   0.62712   0.21243   0.10933
H          H       0.57427   0.62147   0.32618   0.10397
H          H       0.36080   0.94225   0.26324   0.09155
H          H       0.03006   0.43627   0.45007   0.09662
H          H       0.58624   0.60297   0.08888   0.11643
H          H       0.38097   0.92562   0.03646   0.09588
H          H       0.03056   0.41650   0.20765   0.10805
H          H       0.36475   0.33303   0.27345   0.10883
H          H       0.64784   0.02957   0.20816   0.11094
H          H       0.96696   0.60209   0.97535   0.10495
H          H       0.54820   0.18706   0.34844   0.23033
H          H       0.77443   0.44991   0.17188   0.09887
H          H       0.86539   0.47675   0.13240   0.25650
H          H       0.38043   0.30656   0.43093   0.12093
H          H       0.80475   0.37478   0.25034   0.26392
H          H       0.55008   0.31252   0.07841   0.07067
H          H       0.49814   0.36837   0.28876   0.25822
H          H       0.68465   0.09947   0.28681   0.11767
H          H       0.60315   0.41280   0.32484   0.24309
H          H       0.65559   0.21576   0.25747   0.07757
H          H       0.59150   0.13153   0.33532   0.22463
H          H       0.90904   0.59677   0.09389   0.11940
H          H       0.45159   0.82151   0.53986   0.23700
H          H       0.20480   0.56826   0.19234   0.07448
H          H       0.13689   0.58185   0.35017   0.27116
H          H       0.56607   0.65127   0.15985   0.11758
H          H       0.19725   0.64982   0.08723   0.22872
H          H       0.43157   0.64660   0.29696   0.08758
H          H       0.44959   0.57687   0.16259   0.26454
H          H       0.33389   0.87394   0.16231   0.11945
H          H       0.34137   0.53747   0.24868   0.26223
H          H       0.35285   0.79495   0.46308   0.06531
H          H       0.41102   0.84615   0.28273   0.26515
H          H       0.08775   0.44244   0.32594   0.11579
H          H       0.96667   0.40397   0.89129   0.14616
H          H       0.61083   0.57459   0.74415   0.12978
H          H       0.43786   0.03773   0.65092   0.13205
H          H       0.05518   0.57115   0.63033   0.13139
H          H       0.42450   0.44654   0.78283   0.12870
H          H       0.55010   0.97943   0.80816   0.13654
H          H       0.27276   0.69446   0.85673   0.10889
H          H       0.31891   0.57918   0.82635   0.09494
H          H       0.42734   0.73311   0.66291   0.10701
H          H       0.73471   0.31360   0.61212   0.09326
H          H       0.70423   0.43926   0.87631   0.09959
H          H       0.57946   0.28439   0.70581   0.10043
H          H       0.41549   0.39352   0.97796   0.10567
H          H       0.62052   0.06537   0.95080   0.10881
H          H       0.00416   0.60867   0.71657   0.10728
H          H       0.61939   0.65702   0.81080   0.10838
H          H       0.35757   0.98765   0.77505   0.11509
H          H       0.10484   0.41112   0.83035   0.11577
H          H       0.62534   0.63502   0.57380   0.12160
H          H       0.36649   0.96334   0.54233   0.10722
H          H       0.04719   0.38279   0.71238   0.10326
H          H       0.41081   0.36179   0.74641   0.09969
H          H       0.62965   0.03089   0.73488   0.11089
H          H       0.00166   0.57659   0.48752   0.10399
H          H       0.55811   0.20043   0.63470   0.22899
H          H       0.79320   0.45746   0.84230   0.09185
H          H       0.88336   0.46985   0.69041   0.26279
H          H       0.42900   0.34025   0.91273   0.12051
H          H       0.81085   0.36577   0.76024   0.26100
H          H       0.56461   0.35670   0.85335   0.06669
H          H       0.54589   0.41671   0.88968   0.22410
H          H       0.67091   0.10112   0.78934   0.11479
H          H       0.62365   0.45240   0.07995   0.22379
H          H       0.66652   0.22845   0.55103   0.07184
H          H       0.60291   0.14619   0.72007   0.26583
H          H       0.94872   0.58501   0.59044   0.12240
H          H       0.42487   0.81555   0.85062   0.24186
H          H       0.23525   0.55553   0.90408   0.05779
H          H       0.13643   0.53556   0.93931   0.26288
H          H       0.60795   0.68541   0.64785   0.11693
H          H       0.21516   0.60560   0.70542   0.24526
H          H       0.45428   0.66709   0.62439   0.09872
H          H       0.48740   0.61222   0.68208   0.26431
H          H       0.31653   0.91922   0.68689   0.11651
H          H       0.37733   0.56059   0.74429   0.26296
H          H       0.32000   0.76568   0.72604   0.06761
H          H       0.38179   0.87354   0.76458   0.25680
H          H       0.10507   0.44023   0.64492   0.09086
C          C       0.89233   0.44285   0.27034   0.41624
C          C       0.55055   0.44701   0.28601   0.43261
C          C       0.52866   0.09295   0.18329   0.44727
C          C       0.10831   0.59852   0.15419   0.41836
C          C       0.39786   0.50622   0.26465   0.43282
C          C       0.48558   0.89329   0.36839   0.42640
C          C       0.94629   0.48530   0.24486  -0.11914
C          C       0.45649   0.94882   0.24483   0.20160
C          C       0.50953   0.46026   0.28881  -0.10769
C          C       0.03603   0.50962   0.25986   0.21248
C          C       0.52119   0.04103   0.21425  -0.10438
C          C       0.49243   0.52721   0.23026   0.20011
C          C       0.05356   0.55798   0.19500  -0.11853
C          C       0.55903   0.03184   0.25780   0.18858
C          C       0.43905   0.49376   0.26689  -0.10492
C          C       0.96382   0.53339   0.17894   0.18864
C          C       0.49401   0.94070   0.29797  -0.08481
C          C       0.45615   0.42659   0.32335   0.19925
C          C       0.98335   0.47477   0.28423  -0.22023
C          C       0.52663   0.51073   0.24643  -0.21579
C          C       0.47039   0.99837   0.20592  -0.21799
C          C       0.01632   0.56805   0.15248  -0.23160
C          C       0.42216   0.44394   0.31455  -0.22793
C          C       0.54499   0.98275   0.30045  -0.21724
C          C       0.76569   0.41022   0.18083  -0.08189
C          C       0.58486   0.35125   0.10898   0.02899
C          C       0.62890   0.22933   0.32421   0.02123
C          C       0.22831   0.60734   0.14730   0.03252
C          C       0.39075   0.62007   0.27881  -0.09711
C          C       0.37181   0.77429   0.49002   0.03364
C          C       0.27823   0.63688   0.24180   0.07128
C          C       0.35863   0.64118   0.28225   0.07617
C          C       0.34908   0.71953   0.37866   0.06215
C          C       0.71368   0.36968   0.20129   0.07754
C          C       0.62393   0.34079   0.16542   0.06783
C          C       0.64508   0.28047   0.25597   0.07717
C          C       0.30682   0.61182   0.23028  -0.21209
C          C       0.37929   0.69598   0.34629  -0.16420
C          C       0.29833   0.69016   0.32392  -0.20046
C          C       0.67518   0.38046   0.17336  -0.17101
C          C       0.60877   0.29086   0.20824  -0.19488
C          C       0.69732   0.31876   0.24382  -0.19931
C          C       0.38507   0.34275   0.39592  -0.18918
C          C       0.64765   0.06307   0.30151  -0.19282
C          C       0.94406   0.59586   0.10478  -0.18211
C          C       0.56245   0.61492   0.18910  -0.18644
C          C       0.36875   0.91316   0.17119  -0.18270
C          C       0.05317   0.44477   0.32116  -0.18385
C          C       0.89904   0.42180   0.79948   0.42679
C          C       0.59821   0.49227   0.83982   0.44399
C          C       0.52991   0.11284   0.63967   0.43906
C          C       0.12144   0.55165   0.71117   0.44273
C          C       0.43797   0.53340   0.72349   0.41102
C          C       0.45825   0.90338   0.80948   0.42775
C          C       0.95545   0.45813   0.78277  -0.11849
C          C       0.44099   0.97297   0.72638   0.19261
C          C       0.55446   0.49707   0.79054  -0.09630
C          C       0.03962   0.47042   0.82139   0.18640
C          C       0.51461   0.06017   0.68499  -0.09317
C          C       0.53438   0.56093   0.71830   0.19518
C          C       0.06492   0.51700   0.74079  -0.10228
C          C       0.54724   0.04434   0.73127   0.20627
C          C       0.48090   0.52413   0.73269  -0.11505
C          C       0.98133   0.50723   0.71409   0.21186
C          C       0.47366   0.95681   0.76990  -0.09318
C          C       0.50106   0.45960   0.79750   0.20237
C          C       0.98615   0.44111   0.83584  -0.19557
C          C       0.56954   0.54704   0.74785  -0.22455
C          C       0.46159   0.02362   0.68446  -0.20521
C          C       0.03473   0.53448   0.68792  -0.21586
C          C       0.46575   0.47366   0.77090  -0.22257
C          C       0.52652   0.99359   0.77346  -0.20003
C          C       0.77908   0.41542   0.79822  -0.09029
C          C       0.60064   0.37727   0.92316   0.03100
C          C       0.63664   0.23809   0.54387   0.01819
C          C       0.23903   0.59511   0.93011   0.02501
C          C       0.41599   0.63843   0.67241  -0.09228
C          C       0.35815   0.76903   0.70250   0.03469
C          C       0.29164   0.63361   0.85551   0.07860
C          C       0.37852   0.65380   0.73402   0.07015
C          C       0.35103   0.71902   0.75358   0.07358
C          C       0.72715   0.38115   0.75235   0.07351
C          C       0.63835   0.36327   0.80537   0.07229
C          C       0.65572   0.29425   0.63967   0.08625
C          C       0.32889   0.61882   0.80869  -0.20086
C          C       0.38907   0.70508   0.71388  -0.17712
C          C       0.30255   0.68365   0.82714  -0.21734
C          C       0.69102   0.39841   0.81364  -0.17679
C          C       0.62070   0.31156   0.71341  -0.21479
C          C       0.70815   0.32821   0.66245  -0.21083
C          C       0.43164   0.37452   0.86949  -0.18462
C          C       0.63164   0.06794   0.80602  -0.19274
C          C       0.97881   0.57751   0.61402  -0.19270
C          C       0.60399   0.64909   0.67873  -0.18683
C          C       0.35562   0.95335   0.68071  -0.18302
C          C       0.08174   0.41986   0.76046  -0.18624
N          N       0.57835   0.18732   0.26481  -0.22984
N          N       0.80650   0.40574   0.20481  -0.07983
N          N       0.57119   0.37907   0.27355  -0.25856
N          N       0.42712   0.80580   0.43661  -0.23192
N          N       0.19742   0.63377   0.19563  -0.23831
N          N       0.37665   0.56800   0.21182  -0.10972
N          N       0.85512   0.44903   0.21430  -0.25493
N          N       0.53561   0.39414   0.25305  -0.26864
N          N       0.57329   0.13686   0.24549  -0.27980
N          N       0.14498   0.59559   0.22716  -0.27500
N          N       0.41301   0.55366   0.21300  -0.25695
N          N       0.43764   0.85001   0.36028  -0.26555
N          N       0.59225   0.20373   0.65551  -0.24040
N          N       0.81658   0.40190   0.74479  -0.10989
N          N       0.61894   0.43437   0.94719  -0.23992
N          N       0.39172   0.81464   0.83078  -0.25746
N          N       0.20203   0.59703   0.83424  -0.23243
N          N       0.41085   0.59261   0.70546  -0.08439
N          N       0.86771   0.44009   0.76831  -0.27280
N          N       0.58446   0.44358   0.87746  -0.26393
N          N       0.58130   0.15119   0.64339  -0.26737
N          N       0.15272   0.55095   0.82139  -0.26731
N          N       0.45017   0.58158   0.67976  -0.25112
N          N       0.40867   0.86419   0.77944  -0.27142
O          O       0.87924   0.40197   0.33502  -0.50058
O          O       0.59680   0.48188   0.29953  -0.47408
O          O       0.49566   0.09548   0.11531  -0.48269
O          O       0.12002   0.63157   0.05140  -0.49937
O          O       0.35170   0.47617   0.30906  -0.50544
O          O       0.51990   0.89393   0.44217  -0.50223
O          O       0.43956   0.37684   0.36566  -0.17622
O          O       0.60977   0.07324   0.25748  -0.17642
O          O       0.92673   0.54435   0.14844  -0.18399
O          O       0.50870   0.57560   0.17749  -0.18049
O          O       0.40626   0.90673   0.23962  -0.17594
O          O       0.07184   0.49809   0.29246  -0.17163
O          O       0.87905   0.37616   0.83798  -0.49232
O          O       0.64234   0.53125   0.85040  -0.49189
O          O       0.49806   0.12298   0.59907  -0.49149
O          O       0.14079   0.58239   0.59499  -0.48281
O          O       0.39181   0.50064   0.75746  -0.49173
O          O       0.48874   0.89327   0.86113  -0.49233
O          O       0.48568   0.40975   0.83432  -0.16637
O          O       0.59974   0.08016   0.72657  -0.17701
O          O       0.95187   0.52676   0.67696  -0.17252
O          O       0.54967   0.61117   0.68157  -0.19030
O          O       0.38822   0.93706   0.73119  -0.17842
O          O       0.06750   0.45347   0.89136  -0.20132

