data_crystal

_audit_creation_method 'AiiDA-DDEC plugin'

_cell_length_a        37.30369
_cell_length_b        37.24536
_cell_length_c         8.11736

_cell_angle_alpha     74.66307
_cell_angle_beta     114.97070
_cell_angle_gamma     120.13176

_symmetry_space_group_name_Hall 'P 1'
_symmetry_space_group_name_H-M  'P 1'

loop_
_symmetry_equiv_pos_as_xyz
 'x,y,z'

loop_
_atom_site_label
_atom_site_type_symbol
_atom_site_fract_x
_atom_site_fract_y
_atom_site_fract_z
_atom_site_charge
H          H       0.30068   0.58944   0.26132   0.10147
H          H       0.41113   0.70926   0.26777   0.10028
H          H       0.28909   0.69893   0.24815   0.10418
H          H       0.70057   0.41028   0.27372   0.10468
H          H       0.59115   0.28916   0.26754   0.10159
H          H       0.71169   0.30091   0.27152   0.10352
H          H       0.33122   0.57807   0.10246   0.09737
H          H       0.42883   0.76808   0.19105   0.10475
H          H       0.21830   0.65588   0.05414   0.10558
H          H       0.65177   0.43084   0.14781   0.10260
H          H       0.56931   0.23782   0.05060   0.10309
H          H       0.75857   0.33925   0.15674   0.10685
H          H       0.37553   0.54560   0.11041   0.10974
H          H       0.46151   0.84308   0.18123   0.10900
H          H       0.14211   0.61356   0.05908   0.10199
H          H       0.60744   0.46235   0.14348   0.10501
H          H       0.53764   0.16132   0.05031   0.10651
H          H       0.83414   0.38043   0.16140   0.10816
H          H       0.49233   0.63994   0.44636   0.11898
H          H       0.35471   0.83471   0.29437   0.11669
H          H       0.18174   0.52528   0.44942   0.11984
H          H       0.52752   0.34831   0.38130   0.11889
H          H       0.65497   0.16326   0.48668   0.11969
H          H       0.84485   0.48167   0.36890   0.12097
H          H       0.44777   0.67243   0.44126   0.10773
H          H       0.32185   0.75815   0.31036   0.10796
H          H       0.25850   0.56846   0.44821   0.10085
H          H       0.57375   0.31697   0.39448   0.09950
H          H       0.68684   0.24018   0.48688   0.10252
H          H       0.76856   0.43930   0.37128   0.10580
H          H       0.41601   0.51217   0.30184   0.06346
H          H       0.48585   0.90294   0.21085   0.06244
H          H       0.10157   0.58970   0.24711   0.05547
H          H       0.58708   0.48416   0.28248   0.05616
H          H       0.51506   0.10248   0.25187   0.06245
H          H       0.89990   0.41413   0.24039   0.05969
H          H       0.47485   0.42193   0.31401   0.11692
H          H       0.57281   0.05029   0.20854   0.11316
H          H       0.95518   0.52805   0.28565   0.11524
H          H       0.52796   0.57419   0.26640   0.11177
H          H       0.42700   0.95273   0.26644   0.11040
H          H       0.04565   0.47591   0.21224   0.11674
H          H       0.62851   0.61256   0.15273   0.13368
H          H       0.57055   0.60323   0.08684   0.14697
H          H       0.61212   0.54430   0.31143   0.09247
H          H       0.35838   0.38407   0.27532   0.13793
H          H       0.39765   0.39476   0.16467   0.14370
H          H       0.40599   0.45096   0.41057   0.09377
H          H       0.46653   0.06156   0.35650   0.08866
H          H       0.38382   0.98326   0.18350   0.14441
H          H       0.38730   0.02492   0.28213   0.13387
H          H       0.93915   0.39277   0.25928   0.09322
H          H       0.00411   0.41864   0.06249   0.14537
H          H       0.96515   0.36556   0.11847   0.13487
H          H       0.61264   0.97419   0.22283   0.13459
H          H       0.61515   0.01168   0.34473   0.14440
H          H       0.53299   0.94534   0.09204   0.09160
H          H       0.06151   0.61108   0.23239   0.08843
H          H       0.99790   0.58643   0.43450   0.14235
H          H       0.03675   0.63931   0.37561   0.13453
H          H       0.29810   0.58829   0.76221   0.10060
H          H       0.40898   0.70742   0.76345   0.10247
H          H       0.28826   0.69864   0.75145   0.10254
H          H       0.70253   0.40946   0.77614   0.10314
H          H       0.58951   0.29103   0.76516   0.10414
H          H       0.70590   0.29740   0.75035   0.10001
H          H       0.32964   0.57634   0.60322   0.09635
H          H       0.42762   0.76661   0.69099   0.10446
H          H       0.21750   0.65655   0.55620   0.10522
H          H       0.65617   0.43290   0.65035   0.10274
H          H       0.56209   0.23826   0.55192   0.10356
H          H       0.75678   0.33424   0.65983   0.10495
H          H       0.37519   0.54511   0.61179   0.11010
H          H       0.46102   0.84178   0.68323   0.10957
H          H       0.14076   0.61446   0.55630   0.10327
H          H       0.61435   0.46746   0.64426   0.10173
H          H       0.52881   0.16181   0.54252   0.10712
H          H       0.83273   0.37426   0.66742   0.10989
H          H       0.49071   0.64021   0.94803   0.11821
H          H       0.35481   0.83410   0.79835   0.11664
H          H       0.17844   0.52467   0.94198   0.12085
H          H       0.53047   0.35554   0.87582   0.11813
H          H       0.64949   0.16156   0.93957   0.11881
H          H       0.84415   0.47764   0.86173   0.12053
H          H       0.44497   0.67137   0.94266   0.10756
H          H       0.32143   0.75757   0.81387   0.10737
H          H       0.25588   0.56779   0.94855   0.10046
H          H       0.57453   0.32123   0.89470   0.10264
H          H       0.68278   0.23831   0.95198   0.10508
H          H       0.76773   0.43670   0.86128   0.10565
H          H       0.41775   0.51303   0.80146   0.06515
H          H       0.48544   0.90275   0.70756   0.06264
H          H       0.09927   0.58885   0.74988   0.05733
H          H       0.59269   0.49157   0.77916   0.06088
H          H       0.51018   0.10083   0.75277   0.06382
H          H       0.89947   0.40909   0.74233   0.05880
H          H       0.48262   0.42750   0.82072   0.11586
H          H       0.56995   0.05078   0.71052   0.11364
H          H       0.95219   0.52189   0.79319   0.11222
H          H       0.52511   0.57812   0.72910   0.10870
H          H       0.42292   0.95015   0.74690   0.11062
H          H       0.04509   0.47632   0.69819   0.11530
H          H       0.63302   0.62189   0.66672   0.13582
H          H       0.59438   0.61741   0.76632   0.14279
H          H       0.59620   0.54790   0.63776   0.08762
H          H       0.36641   0.38531   0.80213   0.13644
H          H       0.40454   0.39633   0.68488   0.14304
H          H       0.41262   0.45358   0.92506   0.09240
H          H       0.44972   0.06210   0.74186   0.09215
H          H       0.39442   0.97119   0.85116   0.14507
H          H       0.38560   0.01717   0.82735   0.13202
H          H       0.93808   0.38986   0.73945   0.09550
H          H       0.01018   0.41767   0.57872   0.14418
H          H       0.96957   0.36426   0.62106   0.13507
H          H       0.61544   0.97816   0.74668   0.13373
H          H       0.61406   0.01441   0.86093   0.14429
H          H       0.53550   0.94634   0.60673   0.09286
H          H       0.05868   0.60833   0.74547   0.08926
H          H       0.98879   0.58133   0.91776   0.14809
H          H       0.02883   0.63457   0.86999   0.13395
C          C       0.29001   0.64158   0.25385   0.07914
C          C       0.35918   0.64728   0.26449   0.08179
C          C       0.35274   0.71034   0.25608   0.07057
C          C       0.71173   0.35919   0.26899   0.07465
C          C       0.64306   0.35226   0.27328   0.07909
C          C       0.64944   0.29027   0.26990   0.07802
C          C       0.31536   0.62313   0.25965  -0.18424
C          C       0.37723   0.69064   0.26397  -0.17837
C          C       0.30893   0.68505   0.25076  -0.18419
C          C       0.68636   0.37674   0.27193  -0.17914
C          C       0.62481   0.30892   0.26908  -0.18389
C          C       0.69280   0.31559   0.27124  -0.18735
C          C       0.24434   0.61582   0.25385   0.05977
C          C       0.38584   0.62767   0.27150   0.05887
C          C       0.37249   0.75625   0.25260   0.05767
C          C       0.75719   0.38538   0.26617   0.05877
C          C       0.61699   0.37153   0.27538   0.06012
C          C       0.63014   0.24454   0.27043   0.05494
C          C       0.36629   0.59113   0.18297  -0.12611
C          C       0.41258   0.78197   0.21916  -0.12075
C          C       0.21075   0.62800   0.14551  -0.12439
C          C       0.62595   0.41300   0.20736  -0.11653
C          C       0.58773   0.22148   0.14975  -0.12561
C          C       0.77760   0.36979   0.21096  -0.12990
C          C       0.39112   0.57245   0.18882  -0.17433
C          C       0.43126   0.82502   0.21278  -0.16837
C          C       0.16783   0.60410   0.14749  -0.17776
C          C       0.60063   0.43084   0.20363  -0.17600
C          C       0.56970   0.17842   0.15022  -0.17891
C          C       0.82084   0.39329   0.21402  -0.16993
C          C       0.43700   0.58971   0.28574   0.20015
C          C       0.41056   0.84494   0.23905   0.19238
C          C       0.15675   0.56664   0.25719   0.20549
C          C       0.56461   0.40774   0.26615   0.20206
C          C       0.59364   0.15684   0.27340   0.20258
C          C       0.84601   0.43420   0.27179   0.19032
C          C       0.45694   0.62669   0.37169  -0.15680
C          C       0.37045   0.81953   0.27114  -0.14271
C          C       0.19011   0.55394   0.36318  -0.14953
C          C       0.55493   0.36606   0.33078  -0.14774
C          C       0.63650   0.17993   0.39194  -0.15598
C          C       0.82547   0.45027   0.32313  -0.14656
C          C       0.43180   0.64494   0.36645  -0.12482
C          C       0.35207   0.77636   0.27878  -0.12787
C          C       0.23296   0.57826   0.36195  -0.13221
C          C       0.58094   0.34869   0.33716  -0.13093
C          C       0.65412   0.22287   0.39110  -0.12590
C          C       0.78229   0.42639   0.32155  -0.12523
C          C       0.44915   0.53352   0.29614   0.07849
C          C       0.46447   0.91370   0.22145   0.07256
C          C       0.08902   0.55593   0.25031   0.07876
C          C       0.55295   0.46278   0.27558   0.07350
C          C       0.53660   0.08965   0.25949   0.07962
C          C       0.91259   0.44725   0.25402   0.07524
C          C       0.47511   0.51490   0.29232   0.01558
C          C       0.48215   0.95856   0.22289   0.01809
C          C       0.04358   0.52946   0.24631   0.02044
C          C       0.52692   0.48123   0.27947   0.01498
C          C       0.51726   0.04475   0.24983   0.01894
C          C       0.95724   0.47450   0.25105   0.02771
C          C       0.45905   0.47087   0.30529   0.06279
C          C       0.52475   0.98603   0.20962   0.06723
C          C       0.01831   0.54529   0.26929   0.06149
C          C       0.54297   0.52529   0.26596   0.06039
C          C       0.47460   0.01735   0.26199   0.06798
C          C       0.98237   0.45879   0.22585   0.06448
C          C       0.48550   0.45530   0.29846  -0.14359
C          C       0.54108   0.02843   0.22392  -0.15040
C          C       0.97578   0.51719   0.27087  -0.14829
C          C       0.51644   0.54079   0.27287  -0.14284
C          C       0.45843   0.97487   0.24895  -0.14856
C          C       0.02497   0.48689   0.22525  -0.14514
C          C       0.41617   0.44179   0.32715  -0.07770
C          C       0.55107   0.97090   0.18056  -0.08084
C          C       0.03587   0.58964   0.29021  -0.07920
C          C       0.58612   0.55435   0.24761  -0.08290
C          C       0.44834   0.03223   0.29249  -0.08353
C          C       0.96510   0.41460   0.20383  -0.07937
C          C       0.59562   0.59214   0.15873  -0.29939
C          C       0.38941   0.40492   0.25219  -0.31632
C          C       0.97906   0.39895   0.12484  -0.31042
C          C       0.40421   0.01245   0.24967  -0.30332
C          C       0.59531   0.98653   0.25323  -0.31378
C          C       0.02265   0.60583   0.37033  -0.31067
C          C       0.28830   0.64095   0.75552   0.07870
C          C       0.35689   0.64582   0.76436   0.08032
C          C       0.35139   0.70936   0.75645   0.07143
C          C       0.71012   0.35683   0.76288   0.07711
C          C       0.64335   0.35310   0.77254   0.08100
C          C       0.64573   0.28950   0.75943   0.07593
C          C       0.31315   0.62201   0.76063  -0.18224
C          C       0.37528   0.68924   0.76242  -0.18200
C          C       0.30770   0.68443   0.75299  -0.18245
C          C       0.68668   0.37590   0.77113  -0.18034
C          C       0.62320   0.30963   0.76566  -0.18586
C          C       0.68905   0.31332   0.75849  -0.18581
C          C       0.24256   0.61566   0.75455   0.05724
C          C       0.38364   0.62625   0.77208   0.05848
C          C       0.37153   0.75525   0.75327   0.06286
C          C       0.75568   0.38179   0.76094   0.05815
C          C       0.61907   0.37428   0.77492   0.05989
C          C       0.62474   0.24382   0.75433   0.05745
C          C       0.36471   0.58983   0.68390  -0.12242
C          C       0.41162   0.78071   0.71951  -0.12420
C          C       0.20941   0.62838   0.64569  -0.12381
C          C       0.62988   0.41609   0.70749  -0.11995
C          C       0.58101   0.22149   0.64112  -0.12680
C          C       0.77594   0.36514   0.71062  -0.12690
C          C       0.39026   0.57192   0.68967  -0.17785
C          C       0.43069   0.82377   0.71423  -0.16672
C          C       0.16622   0.60466   0.64469  -0.18084
C          C       0.60597   0.43564   0.70242  -0.17688
C          C       0.56208   0.17843   0.63632  -0.18245
C          C       0.81937   0.38793   0.71544  -0.17281
C          C       0.43618   0.58995   0.78587   0.20375
C          C       0.41029   0.84387   0.74146   0.19538
C          C       0.15458   0.56678   0.75111   0.20813
C          C       0.56940   0.41388   0.76144   0.20301
C          C       0.58662   0.15636   0.74579   0.20442
C          C       0.84472   0.42913   0.76997   0.19479
C          C       0.45535   0.62657   0.87291  -0.15633
C          C       0.37020   0.81871   0.77410  -0.14419
C          C       0.18752   0.55366   0.85826  -0.15397
C          C       0.55815   0.37203   0.82682  -0.14368
C          C       0.63070   0.17877   0.85632  -0.15243
C          C       0.82443   0.44611   0.81741  -0.14891
C          C       0.42955   0.64401   0.86775  -0.12381
C          C       0.35150   0.77556   0.78106  -0.13009
C          C       0.23066   0.57791   0.86101  -0.12853
C          C       0.58288   0.35300   0.83592  -0.12856
C          C       0.64907   0.22153   0.86190  -0.12508
C          C       0.78116   0.42295   0.81429  -0.12273
C          C       0.45057   0.53530   0.79453   0.07817
C          C       0.46396   0.91292   0.72164   0.07018
C          C       0.08667   0.55528   0.74617   0.07424
C          C       0.55816   0.46996   0.76579   0.07110
C          C       0.53074   0.08858   0.74546   0.07354
C          C       0.91165   0.44217   0.75451   0.07885
C          C       0.47774   0.51829   0.78881   0.01604
C          C       0.48081   0.95766   0.72335   0.02151
C          C       0.04133   0.52789   0.74180   0.02247
C          C       0.53082   0.48756   0.76518   0.01595
C          C       0.51236   0.04365   0.73956   0.01531
C          C       0.95602   0.47030   0.75034   0.02577
C          C       0.46384   0.47454   0.80812   0.06182
C          C       0.52361   0.98597   0.71415   0.06584
C          C       0.01540   0.54210   0.77026   0.05951
C          C       0.54423   0.53128   0.74119   0.05999
C          C       0.46969   0.01534   0.75045   0.06521
C          C       0.98179   0.45622   0.71965   0.06401
C          C       0.49102   0.46046   0.79693  -0.14552
C          C       0.53807   0.02820   0.72284  -0.14931
C          C       0.97341   0.51260   0.77371  -0.14296
C          C       0.51709   0.54526   0.75420  -0.14214
C          C       0.45528   0.97302   0.74083  -0.14411
C          C       0.02380   0.48571   0.71666  -0.14665
C          C       0.42243   0.44441   0.84024  -0.08070
C          C       0.55189   0.97207   0.69292  -0.07785
C          C       0.03153   0.58603   0.79358  -0.08334
C          C       0.58372   0.56082   0.69448  -0.07756
C          C       0.44098   0.02904   0.76877  -0.08567
C          C       0.96586   0.41240   0.69564  -0.08604
C          C       0.60473   0.60215   0.71056  -0.30974
C          C       0.39653   0.40668   0.77256  -0.31266
C          C       0.98294   0.39754   0.62886  -0.30273
C          C       0.40501   0.00439   0.81662  -0.29458
C          C       0.59614   0.98920   0.77082  -0.31140
C          C       0.01534   0.60123   0.86349  -0.30734
N          N       0.46431   0.57338   0.29393  -0.27444
N          N       0.42626   0.88801   0.23684  -0.29355
N          N       0.11414   0.54032   0.26160  -0.27586
N          N       0.53741   0.42315   0.26778  -0.27514
N          N       0.57770   0.11377   0.27818  -0.27643
N          N       0.88921   0.46123   0.27418  -0.29094
N          N       0.46446   0.57492   0.79280  -0.28344
N          N       0.42620   0.88689   0.74024  -0.28853
N          N       0.11175   0.54023   0.75164  -0.27226
N          N       0.54275   0.43035   0.75854  -0.27468
N          N       0.57052   0.11344   0.74655  -0.27401
N          N       0.88791   0.45590   0.77313  -0.29319

