data_crystal

_audit_creation_method 'AiiDA-DDEC plugin'

_cell_length_a        28.31359
_cell_length_b        29.76853
_cell_length_c         7.87072

_cell_angle_alpha     117.41883
_cell_angle_beta     86.68510
_cell_angle_gamma     118.42467

_symmetry_space_group_name_Hall 'P 1'
_symmetry_space_group_name_H-M  'P 1'

loop_
_symmetry_equiv_pos_as_xyz
 'x,y,z'

loop_
_atom_site_label
_atom_site_type_symbol
_atom_site_fract_x
_atom_site_fract_y
_atom_site_fract_z
_atom_site_charge
H          H       0.56745   0.30667   0.36551   0.10721
H          H       0.70223   0.27736   0.34705   0.10783
H          H       0.72733   0.43459   0.36816   0.10472
H          H       0.42778   0.69476   0.12227   0.10725
H          H       0.29104   0.72239   0.16350   0.10637
H          H       0.27107   0.56654   0.13697   0.10665
H          H       0.69112   0.49339   0.58116   0.12617
H          H       0.53529   0.25157   0.48816   0.11894
H          H       0.78544   0.31116   0.36269   0.12308
H          H       0.30704   0.50878   0.92271   0.12634
H          H       0.45959   0.75234   0.01448   0.11991
H          H       0.20814   0.68724   0.15554   0.12415
H          H       0.65032   0.55148   0.57956   0.11159
H          H       0.47626   0.15345   0.46534   0.10976
H          H       0.88391   0.35131   0.34427   0.11149
H          H       0.34975   0.45207   0.92433   0.11048
H          H       0.51518   0.84956   0.03109   0.10971
H          H       0.11066   0.64646   0.18831   0.11217
H          H       0.50896   0.38835   0.17116   0.08782
H          H       0.59784   0.10892   0.22139   0.08983
H          H       0.88144   0.49157   0.31886   0.08597
H          H       0.49165   0.61698   0.32023   0.08868
H          H       0.38865   0.88764   0.25452   0.08909
H          H       0.11895   0.50836   0.20887   0.08649
H          H       0.57415   0.55464   0.46380   0.08167
H          H       0.45979   0.05540   0.37344   0.07912
H          H       0.96948   0.42698   0.32190   0.08508
H          H       0.42741   0.45046   0.03299   0.08238
H          H       0.52880   0.94569   0.11674   0.07883
H          H       0.02814   0.57156   0.21985   0.08275
H          H       0.57162   0.30479   0.86398   0.10717
H          H       0.70802   0.27716   0.83639   0.10840
H          H       0.73031   0.43504   0.87143   0.10501
H          H       0.43234   0.69294   0.62434   0.10695
H          H       0.29705   0.72214   0.65068   0.10742
H          H       0.27479   0.56707   0.64047   0.10686
H          H       0.69393   0.49198   0.08215   0.12763
H          H       0.53984   0.24756   0.97802   0.12079
H          H       0.79203   0.31437   0.86566   0.12384
H          H       0.31030   0.50775   0.42313   0.12641
H          H       0.46463   0.74920   0.50713   0.12010
H          H       0.21537   0.69088   0.65652   0.12285
H          H       0.65247   0.54995   0.08099   0.11028
H          H       0.48209   0.14900   0.95136   0.10937
H          H       0.89031   0.35554   0.84384   0.11205
H          H       0.35228   0.45032   0.42460   0.11138
H          H       0.52178   0.84660   0.52334   0.10972
H          H       0.11785   0.65194   0.68679   0.11080
H          H       0.51028   0.38643   0.68135   0.08818
H          H       0.60553   0.10770   0.70912   0.08955
H          H       0.88422   0.49352   0.81381   0.08597
H          H       0.49344   0.61420   0.82883   0.08828
H          H       0.39630   0.88691   0.74683   0.09101
H          H       0.12138   0.51080   0.70229   0.08748
H          H       0.57576   0.55283   0.96846   0.08362
H          H       0.46772   0.05263   0.86224   0.08124
H          H       0.97490   0.43192   0.81942   0.08439
H          H       0.42965   0.44811   0.53477   0.07995
H          H       0.53563   0.94230   0.60363   0.08007
H          H       0.03245   0.57518   0.70934   0.08413
C          C       0.61059   0.32101   0.36517  -0.14001
C          C       0.68767   0.30602   0.35575  -0.13401
C          C       0.70027   0.39390   0.36959  -0.14073
C          C       0.38486   0.68040   0.12837  -0.13893
C          C       0.30678   0.69428   0.15047  -0.13411
C          C       0.29698   0.60705   0.13318  -0.14309
C          C       0.63200   0.28682   0.36132   0.04063
C          C       0.72230   0.35946   0.35971   0.03763
C          C       0.64458   0.37467   0.37041   0.03098
C          C       0.36208   0.71394   0.13636   0.04072
C          C       0.27370   0.64083   0.14798   0.03683
C          C       0.35249   0.62705   0.12682   0.03227
C          C       0.62146   0.41024   0.37494   0.21512
C          C       0.59651   0.23049   0.35780   0.20117
C          C       0.78077   0.38030   0.34920   0.20605
C          C       0.37699   0.59261   0.12220   0.21448
C          C       0.39564   0.76990   0.13538   0.20152
C          C       0.21568   0.61929   0.16633   0.20674
C          C       0.65125   0.47178   0.48966  -0.17654
C          C       0.54695   0.21817   0.42395  -0.17266
C          C       0.80733   0.35071   0.35071  -0.17090
C          C       0.34749   0.53101   0.01136  -0.17662
C          C       0.44577   0.78398   0.07285  -0.17122
C          C       0.18769   0.64800   0.16959  -0.17272
C          C       0.62839   0.50384   0.48874  -0.09420
C          C       0.51450   0.16387   0.41273  -0.09323
C          C       0.86245   0.37318   0.34096  -0.09177
C          C       0.37142   0.49980   0.01177  -0.09270
C          C       0.47656   0.83800   0.08107  -0.09216
C          C       0.13321   0.62523   0.18758  -0.09353
C          C       0.57658   0.47436   0.36991   0.01169
C          C       0.53161   0.12234   0.33545   0.01007
C          C       0.89076   0.42459   0.32724   0.00509
C          C       0.42397   0.53021   0.12692   0.01025
C          C       0.45728   0.87763   0.15121   0.01312
C          C       0.10680   0.57413   0.20344   0.00725
C          C       0.54951   0.41250   0.26274   0.07590
C          C       0.58276   0.13956   0.27826   0.07851
C          C       0.86083   0.45135   0.32789   0.07524
C          C       0.45061   0.59205   0.23105   0.07387
C          C       0.40555   0.85865   0.20402   0.07796
C          C       0.13801   0.54818   0.19757   0.07536
C          C       0.55274   0.50720   0.36216   0.05025
C          C       0.49795   0.06486   0.31838   0.03950
C          C       0.94758   0.44764   0.30874   0.04575
C          C       0.44849   0.49790   0.13447   0.04969
C          C       0.48968   0.93486   0.16561   0.04485
C          C       0.05042   0.55054   0.22662   0.04655
C          C       0.61479   0.31945   0.86296  -0.13858
C          C       0.69269   0.30553   0.84841  -0.13535
C          C       0.70384   0.39377   0.86989  -0.14111
C          C       0.38943   0.67908   0.62822  -0.13775
C          C       0.31211   0.69395   0.64310  -0.13149
C          C       0.30093   0.60731   0.63536  -0.14312
C          C       0.63692   0.28539   0.85494   0.03959
C          C       0.72669   0.35971   0.85655   0.03603
C          C       0.64804   0.37360   0.87062   0.03315
C          C       0.36741   0.71276   0.63113   0.03718
C          C       0.27838   0.64138   0.64558   0.03582
C          C       0.35635   0.62630   0.62961   0.02995
C          C       0.62421   0.40882   0.87721   0.21063
C          C       0.60220   0.22846   0.84853   0.20482
C          C       0.78534   0.38179   0.84699   0.20760
C          C       0.38000   0.59124   0.62691   0.21279
C          C       0.40168   0.76839   0.62884   0.20517
C          C       0.22049   0.62127   0.66395   0.20794
C          C       0.65390   0.47036   0.99170  -0.17548
C          C       0.55240   0.21492   0.91334  -0.17306
C          C       0.81306   0.35343   0.85050  -0.17350
C          C       0.35041   0.52964   0.51357  -0.17548
C          C       0.45171   0.78161   0.56584  -0.17545
C          C       0.19389   0.65145   0.66936  -0.17155
C          C       0.63076   0.50227   0.99146  -0.09325
C          C       0.52053   0.16028   0.89983  -0.09166
C          C       0.86810   0.37659   0.83928  -0.08992
C          C       0.37383   0.49799   0.51413  -0.09206
C          C       0.48307   0.83542   0.57296  -0.09181
C          C       0.13924   0.62959   0.68589  -0.09276
C          C       0.57869   0.47263   0.87440   0.01050
C          C       0.53856   0.11960   0.82199   0.01575
C          C       0.89540   0.42772   0.82345   0.00464
C          C       0.42587   0.52789   0.63182   0.01067
C          C       0.46418   0.87541   0.64192   0.01269
C          C       0.11143   0.57809   0.69945   0.00622
C          C       0.55143   0.41074   0.76909   0.07432
C          C       0.58984   0.13782   0.76600   0.07668
C          C       0.86446   0.45352   0.82415   0.07421
C          C       0.45264   0.58974   0.73847   0.07604
C          C       0.41263   0.85738   0.69610   0.07975
C          C       0.14150   0.55094   0.69274   0.07322
C          C       0.55476   0.50539   0.86690   0.04901
C          C       0.50552   0.06215   0.80501   0.04033
C          C       0.95227   0.45174   0.80481   0.04829
C          C       0.45026   0.49539   0.63846   0.05343
C          C       0.49676   0.93221   0.65385   0.03836
C          C       0.05477   0.55471   0.72071   0.04837
N          N       0.57040   0.38095   0.26579  -0.29968
N          N       0.61432   0.19151   0.28868  -0.29406
N          N       0.80815   0.43053   0.33892  -0.29311
N          N       0.42867   0.62277   0.22795  -0.29843
N          N       0.37560   0.80695   0.19674  -0.29400
N          N       0.19018   0.56945   0.17939  -0.29208
N          N       0.50784   0.48235   0.23870  -0.19187
N          N       0.51213   0.02512   0.23935  -0.17512
N          N       0.97217   0.49133   0.27392  -0.19132
N          N       0.49348   0.52301   0.25786  -0.19182
N          N       0.47388   0.97333   0.23656  -0.17697
N          N       0.02603   0.50581   0.25637  -0.19224
N          N       0.57278   0.37939   0.77044  -0.29800
N          N       0.62082   0.19012   0.77831  -0.29647
N          N       0.81179   0.43194   0.83600  -0.29269
N          N       0.43123   0.62089   0.73540  -0.30009
N          N       0.38224   0.80593   0.69008  -0.29602
N          N       0.19369   0.57117   0.67512  -0.29336
N          N       0.50989   0.48021   0.74277  -0.18967
N          N       0.51956   0.02235   0.72459  -0.17691
N          N       0.97638   0.49549   0.76977  -0.19390
N          N       0.49499   0.52052   0.76304  -0.19326
N          N       0.48133   0.97095   0.72420  -0.17528
N          N       0.03052   0.51066   0.75409  -0.19184

