
##########################################################################
#               Crystallographic Information Format file
#               Produced by PyCifRW module
#
#  This is a CIF file.  CIF has been adopted by the International
#  Union of Crystallography as the standard for data archiving and
#  transmission.
#
#  For information on this file format, follow the CIF links at
#  http://www.iucr.org
##########################################################################

data_image0

_cell_length_a                          26.9322
_cell_length_b                          43.7009
_cell_length_c                          10.1475
_cell_angle_alpha                       87.5091
_cell_angle_beta                        114.512
_cell_angle_gamma                       90.1589
_symmetry_space_group_name_H-M          'P 1'
_space_group_name_Hall                  'P 1'
loop_
  _atom_site_type_symbol
  _atom_site_label
  _atom_site_fract_x
  _atom_site_fract_y
  _atom_site_fract_z
  _atom_site_charge
         N         N         0.32681   0.09825   0.19268   -0.277779           
         N         N         0.66473   0.10580   0.32752   -0.290117           
         N         N         0.83347   0.60473   0.17991   -0.284337           
         N         N         0.17124   0.60035   0.31887   -0.280777           
         N         N         0.67160   0.90220   0.30335   -0.277236           
         N         N         0.33496   0.89596   0.17419   -0.287317           
         N         N         0.16682   0.39629   0.31302   -0.287164           
         N         N         0.82824   0.40329   0.18486   -0.280718           
         C         C         0.32914   0.12459   0.13262   0.064974  
         C         C         0.66311   0.13148   0.38476   0.072393  
         C         C         0.82965   0.63112   0.11319   0.071433  
         C         C         0.17052   0.62447   0.38738   0.066217  
         C         C         0.66710   0.87617   0.36261   0.064205  
         C         C         0.33393   0.87070   0.11114   0.070891  
         C         C         0.17048   0.37027   0.38275   0.070445  
         C         C         0.83263   0.37796   0.12906   0.065028  
         C         C         0.29899   0.15155   0.14141   0.054750  
         C         C         0.69474   0.15776   0.37322   0.052877  
         C         C         0.80096   0.65716   0.13609   0.052004  
         C         C         0.20134   0.65162   0.38073   0.053248  
         C         C         0.69687   0.84866   0.35757   0.054460  
         C         C         0.30289   0.84443   0.12612   0.052923  
         C         C         0.19856   0.34372   0.36227   0.055270  
         C         C         0.80162   0.35085   0.13351   0.053548  
         C         C         0.10439   0.21565   0.28659   -0.082035           
         C         C         0.89299   0.21857   0.22159   -0.079004           
         C         C         0.60848   0.71272   0.29511   -0.078301           
         C         C         0.39647   0.71847   0.22622   -0.082699           
         C         C         0.89139   0.78264   0.21263   -0.081809           
         C         C         0.10773   0.78401   0.28514   -0.078998           
         C         C         0.38947   0.28358   0.20411   -0.080875           
         C         C         0.60529   0.28535   0.27902   -0.082683           
         C         C         0.15861   0.21629   0.30392   -0.144268           
         C         C         0.83839   0.22048   0.20008   -0.145775           
         C         C         0.66312   0.71690   0.32076   -0.143838           
         C         C         0.34228   0.71822   0.20923   -0.144227           
         C         C         0.83766   0.78333   0.19928   -0.144870           
         C         C         0.16246   0.78117   0.30896   -0.145726           
         C         C         0.33492   0.28108   0.18216   -0.144172           
         C         C         0.65946   0.28489   0.29605   -0.143317           
         C         C         0.17408   0.23448   0.20973   0.075352  
         C         C         0.82253   0.23791   0.28986   0.074837  
         C         C         0.67739   0.73499   0.22417   0.076884  
         C         C         0.32544   0.73527   0.29838   0.072643  
         C         C         0.82202   0.76512   0.29298   0.074078  
         C         C         0.17807   0.76379   0.21848   0.075556  
         C         C         0.32008   0.26304   0.27787   0.076253  
         C         C         0.67556   0.26757   0.20632   0.072493  
         C         C         0.13353   0.25250   0.09988   -0.138408           
         C         C         0.86308   0.25370   0.40029   -0.137737           
         C         C         0.63529   0.74928   0.10282   -0.140317           
         C         C         0.36460   0.75282   0.40361   -0.133912           
         C         C         0.86185   0.74603   0.39887   -0.134079           
         C         C         0.13720   0.74854   0.10637   -0.138267           
         C         C         0.36164   0.24719   0.39474   -0.138927           
         C         C         0.63581   0.25042   0.10070   -0.133920           
         C         C         0.07943   0.25217   0.08356   -0.092001           
         C         C         0.91749   0.25234   0.41982   -0.090252           
         C         C         0.58072   0.74568   0.07885   -0.092507           
         C         C         0.41865   0.75337   0.41964   -0.095074           
         C         C         0.91546   0.74508   0.41158   -0.094893           
         C         C         0.08254   0.75093   0.08405   -0.093038           
         C         C         0.41611   0.24918   0.41526   -0.092418           
         C         C         0.58174   0.25058   0.08456   -0.093400           
         H         H         0.35729   0.12854   0.08024   0.068856  
         H         H         0.63586   0.13500   0.43921   0.071286  
         H         H         0.85008   0.63547   0.04025   0.071467  
         H         H         0.14369   0.62651   0.44420   0.072682  
         H         H         0.63742   0.87303   0.41074   0.070270  
         H         H         0.35842   0.86757   0.04856   0.072716  
         H         H         0.15029   0.36655   0.45666   0.071383  
         H         H         0.86327   0.37498   0.08480   0.069081  
         H         H         0.09371   0.20161   0.36185   0.110296  
         H         H         0.90396   0.20507   0.14986   0.109588  
         H         H         0.59867   0.69855   0.37161   0.108995  
         H         H         0.40808   0.70539   0.15436   0.108132  
         H         H         0.90211   0.79654   0.13710   0.108406  
         H         H         0.09687   0.79761   0.35678   0.109820  
         H         H         0.39949   0.29757   0.12755   0.109938  
         H         H         0.59402   0.29873   0.35061   0.110278  
         H         H         0.18943   0.20335   0.39488   0.102488  
         H         H         0.80776   0.20928   0.10873   0.101156  
         H         H         0.69489   0.70663   0.41886   0.097461  
         H         H         0.31258   0.70558   0.12179   0.102644  
         H         H         0.80728   0.79724   0.11158   0.104277  
         H         H         0.19338   0.79181   0.40178   0.100329  
         H         H         0.30353   0.29250   0.08686   0.099841  
         H         H         0.68986   0.29718   0.38357   0.104000  
         H         H         0.04894   0.26652   -0.00200  0.101354  
         H         H         0.94787   0.26513   0.50528   0.101071  
         H         H         0.54897   0.75728   0.98461   0.098897  
         H         H         0.44798   0.76731   0.50181   0.101636  
         H         H         0.94523   0.72986   0.49420   0.102496  
         H         H         0.05174   0.73888   0.99620   0.100520  
         H         H         0.44732   0.23640   0.50620   0.101719  
         H         H         0.55185   0.23700   0.00186   0.101128  
         C         C         0.44522   0.03298   0.21437   0.068035  
         C         C         0.54291   0.03832   0.26631   0.059610  
         C         C         0.95480   0.53812   0.21831   0.058615  
         C         C         0.05306   0.53361   0.27652   0.067870  
         C         C         0.55301   0.96855   0.26800   0.068894  
         C         C         0.45530   0.96322   0.21599   0.059425  
         C         C         0.04675   0.46373   0.27557   0.060734  
         C         C         0.94866   0.46808   0.21986   0.066092  
         C         C         0.43178   0.03724   0.33217   -0.131946           
         C         C         0.59895   0.03046   0.31172   -0.118433           
         C         C         0.90045   0.53002   0.19180   -0.120894           
         C         C         0.06541   0.54319   0.15985   -0.130686           
         C         C         0.56708   0.96329   0.15223   -0.133929           
         C         C         0.39993   0.97115   0.18024   -0.119173           
         C         C         0.09959   0.47170   0.28790   -0.120820           
         C         C         0.93178   0.46237   0.33212   -0.129050           
         C         C         0.38995   0.05734   0.31973   -0.153081           
         C         C         0.63860   0.05248   0.33253   -0.163147           
         C         C         0.86058   0.55177   0.17599   -0.162962           
         C         C         0.10724   0.56364   0.17927   -0.157138           
         C         C         0.60949   0.94309   0.16949   -0.154295           
         C         C         0.36076   0.94922   0.16639   -0.162438           
         C         C         0.13914   0.44968   0.30389   -0.160218           
         C         C         0.88931   0.44249   0.31497   -0.157098           
         C         C         0.36182   0.07474   0.18967   0.198882  
         C         C         0.62524   0.08397   0.31422   0.207036  
         C         C         0.87181   0.58326   0.18036   0.206239  
         C         C         0.13599   0.57631   0.31494   0.198339  
         C         C         0.63696   0.92639   0.30187   0.198673  
         C         C         0.37388   0.91774   0.18121   0.204979  
         C         C         0.12899   0.41820   0.31226   0.204478  
         C         C         0.86419   0.42678   0.18614   0.200135  
         C         C         0.37172   0.06860   0.06738   -0.181207           
         C         C         0.57013   0.09227   0.27182   -0.186021           
         C         C         0.92468   0.59187   0.19946   -0.183393           
         C         C         0.12660   0.56506   0.43466   -0.178095           
         C         C         0.62649   0.93361   0.42206   -0.181269           
         C         C         0.42815   0.90935   0.21277   -0.186038           
         C         C         0.07752   0.40988   0.30571   -0.182266           
         C         C         0.87810   0.43414   0.06929   -0.179657           
         C         C         0.41287   0.04777   0.08008   -0.123368           
         C         C         0.53066   0.07020   0.24884   -0.119394           
         C         C         0.96466   0.57005   0.21852   -0.119374           
         C         C         0.08566   0.54372   0.41499   -0.125641           
         C         C         0.58500   0.95461   0.40478   -0.127540           
         C         C         0.46733   0.93132   0.22967   -0.119148           
         C         C         0.03809   0.43189   0.28824   -0.118181           
         C         C         0.92003   0.45456   0.08670   -0.125969           
         C         C         0.06448   0.23349   0.17598   -0.105459           
         C         C         0.93280   0.23461   0.33104   -0.109073           
         C         C         0.56696   0.72712   0.17397   -0.110521           
         C         C         0.43491   0.73610   0.33120   -0.106186           
         C         C         0.93055   0.76351   0.31855   -0.104435           
         C         C         0.06745   0.76899   0.17222   -0.109285           
         C         C         0.43037   0.26761   0.32075   -0.109043           
         C         C         0.56617   0.26820   0.17321   -0.105700           
         C         C         0.25959   0.15035   0.19885   -0.113106           
         C         C         0.73032   0.15623   0.30407   -0.108838           
         C         C         0.77355   0.65492   0.22777   -0.107605           
         C         C         0.24111   0.65096   0.32468   -0.111377           
         C         C         0.73976   0.84938   0.31265   -0.111694           
         C         C         0.26971   0.84581   0.20241   -0.110323           
         C         C         0.23041   0.34540   0.28200   -0.113097           
         C         C         0.75821   0.35146   0.17628   -0.111209           
         C         C         0.23641   0.17713   0.21912   -0.136578           
         C         C         0.75459   0.18246   0.27775   -0.135150           
         C         C         0.75152   0.68087   0.25874   -0.134573           
         C         C         0.26434   0.67784   0.30068   -0.138340           
         C         C         0.76266   0.82236   0.29379   -0.140176           
         C         C         0.24623   0.81951   0.23130   -0.134661           
         C         C         0.25210   0.31898   0.25385   -0.131898           
         C         C         0.73457   0.32443   0.19686   -0.138406           
         C         C         0.25264   0.20642   0.18815   0.074496  
         C         C         0.74293   0.21163   0.31391   0.074780  
         C         C         0.75752   0.71031   0.20456   0.077170  
         C         C         0.24760   0.70679   0.32631   0.074955  
         C         C         0.74297   0.79325   0.31411   0.075153  
         C         C         0.25654   0.79050   0.19088   0.076777  
         C         C         0.24119   0.28961   0.29867   0.074145  
         C         C         0.75414   0.29540   0.18070   0.072808  
         C         C         0.28899   0.20713   0.12013   -0.137262           
         C         C         0.71041   0.21254   0.39269   -0.137091           
         C         C         0.78339   0.71218   0.10899   -0.134260           
         C         C         0.21127   0.70688   0.39430   -0.138899           
         C         C         0.70284   0.79290   0.36984   -0.139513           
         C         C         0.28650   0.78971   0.10540   -0.137365           
         C         C         0.21132   0.28834   0.38466   -0.134322           
         C         C         0.79407   0.29541   0.12424   -0.138262           
         C         C         0.31163   0.18041   0.09764   -0.131401           
         C         C         0.68697   0.18622   0.42211   -0.130624           
         C         C         0.80421   0.68614   0.07447   -0.132059           
         C         C         0.18875   0.67994   0.42114   -0.129493           
         C         C         0.68049   0.81986   0.39129   -0.129963           
         C         C         0.30900   0.81612   0.07304   -0.128244           
         C         C         0.19093   0.31479   0.41695   -0.133002           
         C         C         0.81733   0.32242   0.10171   -0.128769           
         H         H         0.38060   0.06111   0.41233   0.110379  
         H         H         0.68101   0.04547   0.36609   0.122843  
         H         H         0.81991   0.54451   0.16027   0.123481  
         H         H         0.11608   0.57143   0.08822   0.108500  
         H         H         0.61934   0.93847   0.07859   0.112206  
         H         H         0.31896   0.95624   0.14135   0.123276  
         H         H         0.17866   0.45678   0.30912   0.122830  
         H         H         0.87705   0.43770   0.40316   0.111201  
         H         H         0.34806   0.08053   0.96341   0.111670  
         H         H         0.55811   0.11636   0.25177   0.108418  
         H         H         0.93483   0.61602   0.20583   0.109077  
         H         H         0.15068   0.57330   0.54217   0.113780  
         H         H         0.64994   0.92227   0.52766   0.112334  
         H         H         0.43989   0.88522   0.22868   0.109589  
         H         H         0.06777   0.38577   0.30896   0.109362  
         H         H         0.85674   0.42347   0.96608   0.114234  
         H         H         0.42138   0.04387   0.98611   0.107054  
         H         H         0.48891   0.07815   0.21487   0.103972  
         H         H         0.00484   0.57817   0.23555   0.105071  
         H         H         0.07756   0.53582   0.50725   0.107416  
         H         H         0.57601   0.95922   0.49730   0.107295  
         H         H         0.50853   0.92326   0.25599   0.105079  
         H         H         -0.00094  0.42403   0.28226   0.105775  
         H         H         0.93182   0.45908   -0.00268  0.110421  
         H         H         0.24833   0.12811   0.22963   0.119233  
         H         H         0.73714   0.13419   0.26784   0.114737  
         H         H         0.77073   0.63256   0.27552   0.114572  
         H         H         0.25231   0.62903   0.29703   0.117387  
         H         H         0.75425   0.87148   0.29081   0.119189  
         H         H         0.26389   0.86773   0.24139   0.115062  
         H         H         0.23728   0.36772   0.24109   0.116062  
         H         H         0.74422   0.37345   0.19570   0.119364  
         H         H         0.20597   0.17518   0.26298   0.110637  
         H         H         0.78127   0.18033   0.22269   0.108001  
         H         H         0.73061   0.67830   0.32969   0.105657  
         H         H         0.29475   0.67637   0.25693   0.112211  
         H         H         0.79576   0.82382   0.25950   0.111213  
         H         H         0.22115   0.82129   0.29111   0.107463  
         H         H         0.27673   0.32120   0.19244   0.106806  
         H         H         0.70123   0.32580   0.23002   0.111498  
         H         H         0.33978   0.18168   0.04557   0.105985  
         H         H         0.66158   0.18756   0.48190   0.106351  
         H         H         0.82340   0.68811   -0.00112  0.101847  
         H         H         0.16046   0.68081   0.47253   0.107668  
         H         H         0.64951   0.81871   0.43410   0.107827  
         H         H         0.33214   0.81491   0.00725   0.105149  
         H         H         0.16846   0.31329   0.48482   0.104814  
         H         H         0.84845   0.32156   0.05954   0.108518  
         C         C         0.26212   0.26124   0.26127   -0.022241           
         C         C         0.73347   0.26660   0.22213   -0.026546           
         C         C         0.76452   0.76466   0.28067   -0.028516           
         C         C         0.23614   0.76198   0.23619   -0.022809           
         C         C         0.73536   0.73815   0.24295   -0.017760           
         C         C         0.26760   0.73567   0.28354   -0.026330           
         C         C         0.23180   0.23508   0.22342   -0.024871           
         C         C         0.76432   0.24002   0.27069   -0.021867           
         H         H         0.14814   0.73489   0.03516   0.105133  
         H         H         0.85021   0.73160   0.47095   0.101494  
         H         H         0.64757   0.23678   0.03097   0.104712  
         H         H         0.35128   0.23338   0.47097   0.103866  
         H         H         0.85190   0.26726   0.47130   0.104682  
         H         H         0.14461   0.26695   0.02675   0.103727  
         H         H         0.35252   0.76617   0.47366   0.103382  
         H         H         0.64538   0.76312   0.02614   0.104953  
         H         H         0.20070   0.72840   0.42622   0.098598  
         H         H         0.78674   0.73428   0.06055   0.097747  
         H         H         0.70319   0.23426   0.43005   0.098502  
         H         H         0.29910   0.22896   0.08346   0.098301  
         H         H         0.80713   0.27397   0.09817   0.100589  
         H         H         0.20472   0.26631   0.42774   0.098395  
         H         H         0.29219   0.76802   0.06495   0.098303  
         H         H         0.68921   0.77115   0.39686   0.099170  
         H         H         0.02477   0.77136   0.15323   0.096652  
         H         H         0.97228   0.76291   0.32776   0.094176  
         H         H         0.52397   0.26857   0.16016   0.094421  
         H         H         0.47291   0.26958   0.33800   0.097380  
         H         H         0.97525   0.23331   0.34667   0.095700  
         H         H         0.02219   0.23291   0.16216   0.094761  
         H         H         0.47705   0.73636   0.34364   0.096228  
         H         H         0.52434   0.72396   0.15367   0.100533  
         H         H         0.54379   0.97451   0.04645   0.099484  
         H         H         0.38687   0.99491   0.16372   0.104157  
         H         H         0.10991   0.49549   0.28152   0.105118  
         H         H         0.95241   0.47346   0.43426   0.101649  
         H         H         0.45467   0.02480   0.43505   0.102078  
         H         H         0.61221   0.00671   0.33154   0.104011  
         H         H         0.88886   0.50627   0.18595   0.104104  
         H         H         0.04133   0.53500   0.05250   0.101011  
         C         C         0.00007   0.48512   0.24757   -0.032069           
         C         C         0.50071   0.98503   0.24087   -0.029885           
         C         C         0.00150   0.51663   0.24782   -0.028851           
         C         C         0.49727   0.01653   0.23886   -0.030950           
         N         N         0.33557   0.10343   0.68191   -0.284429           
         N         N         0.67298   0.09761   0.81265   -0.277860           
         N         N         0.82559   0.59548   0.68842   -0.277090           
         N         N         0.16552   0.60465   0.83195   -0.290600           
         N         N         0.66466   0.89270   0.81938   -0.288915           
         N         N         0.32889   0.90104   0.68789   -0.283290           
         N         N         0.17206   0.40023   0.80304   -0.279059           
         N         N         0.83647   0.39464   0.67105   -0.285832           
         C         C         0.33473   0.13026   0.62170   0.067719  
         C         C         0.67226   0.12163   0.88171   0.067075  
         C         C         0.83323   0.62241   0.64288   0.065558  
         C         C         0.16738   0.62969   0.89740   0.072310  
         C         C         0.66794   0.86658   0.88808   0.071212  
         C         C         0.33036   0.87615   0.62506   0.064449  
         C         C         0.16979   0.37453   0.86831   0.064045  
         C         C         0.83388   0.36937   0.60689   0.073608  
         C         C         0.30385   0.15613   0.63736   0.052175  
         C         C         0.70206   0.14917   0.87357   0.054161  
         C         C         0.80331   0.64975   0.64794   0.055104  
         C         C         0.19834   0.65593   0.88221   0.053079  
         C         C         0.69727   0.84050   0.86844   0.054566  
         C         C         0.29945   0.84918   0.63256   0.054754  
         C         C         0.19817   0.34694   0.85778   0.056566  
         C         C         0.80356   0.34319   0.62686   0.051292  
         C         C         0.10594   0.21601   0.79073   -0.079594           
         C         C         0.89477   0.21701   0.71739   -0.080500           
         C         C         0.60842   0.71301   0.78787   -0.082468           
         C         C         0.39390   0.71749   0.72189   -0.077941           
         C         C         0.89087   0.78407   0.70525   -0.078585           
         C         C         0.10429   0.78307   0.77795   -0.081660           
         C         C         0.38990   0.28356   0.70551   -0.081900           
         C         C         0.60670   0.28344   0.77826   -0.080286           
         C         C         0.16034   0.21710   0.80961   -0.145463           
         C         C         0.84077   0.21714   0.70195   -0.143544           
         C         C         0.66261   0.71371   0.80485   -0.143886           
         C         C         0.33961   0.71936   0.70303   -0.146026           
         C         C         0.83663   0.78086   0.68523   -0.144345           
         C         C         0.15912   0.78234   0.80085   -0.143593           
         C         C         0.33562   0.28204   0.68705   -0.143689           
         C         C         0.66182   0.28060   0.80589   -0.145042           
         C         C         0.17553   0.23487   0.71377   0.077227  
         C         C         0.82492   0.23392   0.79374   0.074682  
         C         C         0.67817   0.73264   0.71316   0.073202  
         C         C         0.32435   0.73688   0.79368   0.076882  
         C         C         0.82317   0.76316   0.78452   0.077190  
         C         C         0.17670   0.76498   0.71415   0.074032  
         C         C         0.32098   0.26449   0.78459   0.073684  
         C         C         0.67850   0.26291   0.71854   0.077836  
         C         C         0.13440   0.25133   0.59834   -0.139135           
         C         C         0.86466   0.25124   0.89867   -0.134912           
         C         C         0.63782   0.75116   0.60567   -0.134965           
         C         C         0.36526   0.75290   0.90227   -0.139605           
         C         C         0.86572   0.74858   0.90384   -0.140190           
         C         C         0.13781   0.74768   0.60710   -0.136165           
         C         C         0.36243   0.24818   0.89980   -0.136868           
         C         C         0.63828   0.24762   0.60509   -0.139135           
         C         C         0.08009   0.25045   0.57978   -0.091760           
         C         C         0.91850   0.25150   0.91293   -0.095204           
         C         C         0.58372   0.75071   0.58925   -0.093826           
         C         C         0.41946   0.75154   0.91954   -0.091074           
         C         C         0.91988   0.75133   0.92246   -0.091698           
         C         C         0.08315   0.74802   0.58553   -0.093397           
         C         C         0.41672   0.24954   0.91799   -0.092974           
         C         C         0.58330   0.24999   0.57915   -0.092544           
         H         H         0.35916   0.13501   0.55926   0.075382  
         H         H         0.64595   0.12332   0.94021   0.071571  
         H         H         0.86616   0.62643   0.60695   0.067122  
         H         H         0.14413   0.63270   0.96333   0.071273  
         H         H         0.64682   0.86246   0.95954   0.071826  
         H         H         0.35836   0.87324   0.57236   0.069499  
         H         H         0.14316   0.37166   0.92588   0.071189  
         H         H         0.85618   0.36611   0.53875   0.073118  
         H         H         0.09556   0.20257   0.86826   0.109789  
         H         H         0.90584   0.20405   0.64415   0.108747  
         H         H         0.59768   0.69834   0.86115   0.110359  
         H         H         0.40439   0.70399   0.64927   0.109331  
         H         H         0.89999   0.79773   0.62611   0.109750  
         H         H         0.09200   0.79660   0.84719   0.108615  
         H         H         0.39994   0.29697   0.62733   0.109480  
         H         H         0.59505   0.29722   0.84782   0.108812  
         H         H         0.19138   0.20502   0.90332   0.100269  
         H         H         0.81027   0.20503   0.61398   0.102453  
         H         H         0.69337   0.70006   0.89280   0.104532  
         H         H         0.30863   0.70802   0.61309   0.099885  
         H         H         0.80442   0.79130   0.58855   0.099226  
         H         H         0.18875   0.79459   0.89002   0.102583  
         H         H         0.30413   0.29387   0.59332   0.101281  
         H         H         0.69189   0.29156   0.89912   0.098774  
         H         H         0.04929   0.26365   0.48957   0.100995  
         H         H         0.94838   0.26528   0.99468   0.100574  
         H         H         0.55337   0.76538   0.50509   0.101549  
         H         H         0.45026   0.76446   0.00355   0.101633  
         H         H         0.95207   0.73951   0.01490   0.100216  
         H         H         0.05398   0.73430   0.50197   0.101171  
         H         H         0.44810   0.23670   0.00836   0.100228  
         H         H         0.55303   0.23784   0.49068   0.100231  
         C         C         0.45714   0.03658   0.72363   0.058420  
         C         C         0.55484   0.03113   0.77646   0.066844  
         C         C         0.94709   0.53131   0.72111   0.065575  
         C         C         0.04529   0.53681   0.78028   0.061530  
         C         C         0.54568   0.96113   0.77679   0.060977  
         C         C         0.44785   0.96672   0.71997   0.068348  
         C         C         0.05495   0.46705   0.77243   0.068698  
         C         C         0.95689   0.46180   0.71419   0.056442  
         C         C         0.40126   0.02912   0.67727   -0.118497           
         C         C         0.56466   0.04162   0.65676   -0.132973           
         C         C         0.92978   0.53387   0.83307   -0.131845           
         C         C         0.09974   0.52921   0.80469   -0.122688           
         C         C         0.59858   0.96853   0.78812   -0.120941           
         C         C         0.43066   0.96118   0.83176   -0.132020           
         C         C         0.06812   0.46155   0.65533   -0.134623           
         C         C         0.90105   0.46974   0.67131   -0.117228           
         C         C         0.36153   0.05089   0.66275   -0.165018           
         C         C         0.60665   0.06176   0.67323   -0.153933           
         C         C         0.88664   0.55345   0.81657   -0.155038           
         C         C         0.13900   0.55136   0.82437   -0.160084           
         C         C         0.63762   0.94610   0.80583   -0.161472           
         C         C         0.38897   0.94077   0.81559   -0.151742           
         C         C         0.11001   0.44115   0.67111   -0.152148           
         C         C         0.86164   0.44786   0.65538   -0.165783           
         C         C         0.37474   0.08192   0.68739   0.207708  
         C         C         0.63801   0.07345   0.80980   0.197567  
         C         C         0.86152   0.57207   0.68898   0.198804  
         C         C         0.12699   0.58266   0.82516   0.203499  
         C         C         0.62682   0.91476   0.81647   0.205643  
         C         C         0.36445   0.92464   0.68778   0.197344  
         C         C         0.13809   0.42455   0.80366   0.197937  
         C         C         0.87503   0.41638   0.67511   0.207158  
         C         C         0.42960   0.08999   0.72863   -0.186520           
         C         C         0.63100   0.06137   0.93184   -0.180278           
         C         C         0.87559   0.56774   0.57183   -0.180628           
         C         C         0.07381   0.59062   0.80650   -0.181414           
         C         C         0.57520   0.90700   0.81070   -0.182186           
         C         C         0.37837   0.93202   0.57083   -0.176693           
         C         C         0.12847   0.43200   0.92483   -0.179310           
         C         C         0.92954   0.40793   0.70984   -0.187264           
         C         C         0.46931   0.06803   0.74673   -0.118093           
         C         C         0.59013   0.04012   0.91491   -0.123912           
         C         C         0.91791   0.54746   0.58836   -0.126376           
         C         C         0.03456   0.56844   0.78514   -0.117641           
         C         C         0.53627   0.92945   0.79194   -0.116700           
         C         C         0.41974   0.95277   0.58738   -0.127592           
         C         C         0.08738   0.45316   0.90880   -0.124126           
         C         C         0.96890   0.42991   0.72870   -0.118177           
         C         C         0.06555   0.23273   0.67590   -0.107049           
         C         C         0.93393   0.23412   0.82326   -0.105128           
         C         C         0.56867   0.73145   0.67972   -0.105370           
         C         C         0.43405   0.73364   0.82992   -0.111721           
         C         C         0.93278   0.76922   0.82379   -0.109482           
         C         C         0.06596   0.76601   0.66989   -0.106999           
         C         C         0.43076   0.26738   0.82136   -0.108272           
         C         C         0.56716   0.26814   0.66496   -0.107500           
         C         C         0.27155   0.15361   0.71626   -0.111015           
         C         C         0.74046   0.14920   0.81287   -0.110943           
         C         C         0.75748   0.64907   0.68083   -0.112017           
         C         C         0.23099   0.65465   0.80449   -0.109544           
         C         C         0.72749   0.84300   0.78392   -0.110385           
         C         C         0.25987   0.84963   0.68941   -0.111476           
         C         C         0.23753   0.34780   0.80024   -0.115064           
         C         C         0.77485   0.34434   0.71504   -0.108606           
         C         C         0.24732   0.17943   0.74133   -0.133101           
         C         C         0.76306   0.17638   0.78963   -0.135513           
         C         C         0.73462   0.67607   0.70004   -0.138599           
         C         C         0.25513   0.68087   0.77762   -0.135920           
         C         C         0.75065   0.81720   0.75560   -0.134271           
         C         C         0.23723   0.82254   0.71372   -0.135292           
         C         C         0.25944   0.32089   0.77721   -0.136412           
         C         C         0.75174   0.31815   0.74642   -0.134602           
         C         C         0.25579   0.20903   0.69343   0.076658  
         C         C         0.74698   0.20506   0.82008   0.074186  
         C         C         0.75716   0.70508   0.69173   0.075087  
         C         C         0.24586   0.70977   0.82125   0.076806  
         C         C         0.74293   0.78762   0.80524   0.075867  
         C         C         0.25424   0.79369   0.68775   0.073906  
         C         C         0.24205   0.29173   0.80575   0.075861  
         C         C         0.75790   0.28946   0.69578   0.078496  
         C         C         0.28551   0.21107   0.60715   -0.136653           
         C         C         0.71125   0.20451   0.88994   -0.137855           
         C         C         0.80005   0.70541   0.64583   -0.140433           
         C         C         0.21610   0.71044   0.90734   -0.137082           
         C         C         0.71470   0.78552   0.89514   -0.136772           
         C         C         0.29011   0.79386   0.61839   -0.138202           
         C         C         0.20522   0.29122   0.87240   -0.138201           
         C         C         0.78387   0.28888   0.60057   -0.135948           
         C         C         0.30888   0.18520   0.57936   -0.130847           
         C         C         0.68952   0.17722   0.91670   -0.129826           
         C         C         0.82259   0.67853   0.62511   -0.130650           
         C         C         0.19306   0.68407   0.93785   -0.130485           
         C         C         0.69272   0.81141   0.92709   -0.133170           
         C         C         0.31204   0.82095   0.59104   -0.130467           
         C         C         0.18389   0.31814   0.89786   -0.132576           
         C         C         0.80602   0.31521   0.56611   -0.130895           
         H         H         0.31934   0.04405   0.62960   0.123906  
         H         H         0.61352   0.07004   0.57962   0.109635  
         H         H         0.87438   0.55596   0.90513   0.113119  
         H         H         0.18000   0.54459   0.84002   0.122724  
         H         H         0.67737   0.95269   0.81117   0.122617  
         H         H         0.37710   0.93573   0.90435   0.111082  
         H         H         0.11897   0.43635   0.57895   0.110768  
         H         H         0.81948   0.45501   0.62465   0.123358  
         H         H         0.44126   0.11365   0.75234   0.109882  
         H         H         0.65662   0.06902   0.03939   0.115549  
         H         H         0.85416   0.58061   0.46912   0.111940  
         H         H         0.06289   0.61464   0.80402   0.108156  
         H         H         0.56514   0.88299   0.81614   0.109476  
         H         H         0.35755   0.92105   0.46819   0.112410  
         H         H         0.15212   0.42067   0.03033   0.110304  
         H         H         0.94119   0.38378   0.72709   0.109956  
         H         H         0.51100   0.07560   0.78101   0.105114  
         H         H         0.58407   0.03158   0.00951   0.107531  
         H         H         0.92971   0.54498   0.49888   0.108224  
         H         H         0.99422   0.57601   0.77035   0.104764  
         H         H         0.49714   0.92220   0.78774   0.105425  
         H         H         0.43148   0.95731   0.49786   0.108811  
         H         H         0.07898   0.45791   0.00206   0.106317  
         H         H         0.01032   0.42196   0.75743   0.104662  
         H         H         0.26664   0.13109   0.75915   0.115266  
         H         H         0.75136   0.12757   0.78177   0.117678  
         H         H         0.74072   0.62700   0.69316   0.120381  
         H         H         0.23588   0.63283   0.76312   0.113867  
         H         H         0.73169   0.86552   0.73989   0.114738  
         H         H         0.24835   0.87143   0.71759   0.118657  
         H         H         0.24981   0.36998   0.77193   0.118498  
         H         H         0.77230   0.36601   0.76106   0.113263  
         H         H         0.22310   0.17666   0.80372   0.107565  
         H         H         0.79284   0.17538   0.74367   0.107951  
         H         H         0.69910   0.67443   0.72451   0.111447  
         H         H         0.27986   0.67892   0.71697   0.108227  
         H         H         0.77380   0.82004   0.69038   0.107339  
         H         H         0.20714   0.82375   0.75858   0.107997  
         H         H         0.28971   0.32259   0.73273   0.108389  
         H         H         0.73039   0.31989   0.81593   0.105863  
         H         H         0.33135   0.18730   0.51166   0.104129  
         H         H         0.66189   0.17766   0.97021   0.107924  
         H         H         0.85614   0.67969   0.59170   0.108391  
         H         H         0.17020   0.68509   0.00444   0.105972  
         H         H         0.67147   0.80920   -0.00218  0.103470  
         H         H         0.33994   0.82026   0.53834   0.107311  
         H         H         0.15536   0.31698   0.94883   0.106705  
         H         H         0.82582   0.31420   0.49207   0.104136  
         C         C         0.26314   0.26324   0.76996   -0.025257           
         C         C         0.73671   0.26086   0.73826   -0.022473           
         C         C         0.76534   0.75994   0.76716   -0.018746           
         C         C         0.23473   0.76464   0.73075   -0.026439           
         C         C         0.73590   0.73351   0.72709   -0.028373           
         C         C         0.26644   0.73841   0.77756   -0.023040           
         C         C         0.23350   0.23690   0.73069   -0.022553           
         C         C         0.76735   0.23426   0.78091   -0.026820           
         H         H         0.15072   0.73393   0.53996   0.104169  
         H         H         0.85636   0.73494   0.98247   0.106047  
         H         H         0.65022   0.23399   0.53576   0.102403  
         H         H         0.35204   0.23450   0.97646   0.104121  
         H         H         0.85306   0.26465   0.96942   0.102386  
         H         H         0.14517   0.26494   0.52227   0.103661  
         H         H         0.35453   0.76645   0.97411   0.104666  
         H         H         0.64925   0.76607   0.53472   0.102605  
         H         H         0.21129   0.73193   0.95090   0.098171  
         H         H         0.81592   0.72706   0.62621   0.100184  
         H         H         0.70058   0.22578   0.92383   0.097982  
         H         H         0.28996   0.23322   0.56100   0.099123  
         H         H         0.78652   0.26743   0.55367   0.098465  
         H         H         0.19363   0.26943   0.90559   0.099124  
         H         H         0.30095   0.77242   0.58636   0.099163  
         H         H         0.71048   0.76332   0.94127   0.099246  
         H         H         0.02318   0.76668   0.65159   0.095322  
         H         H         0.97507   0.77162   0.83948   0.098901  
         H         H         0.52424   0.27037   0.64371   0.095521  
         H         H         0.47308   0.26869   0.83600   0.097636  
         H         H         0.97606   0.23400   0.83563   0.093544  
         H         H         0.02318   0.23197   0.66124   0.095410  
         H         H         0.47621   0.73240   0.84312   0.096104  
         H         H         0.52635   0.73076   0.66562   0.095375  
         H         H         0.60948   0.99216   0.78031   0.104590  
         H         H         0.45085   0.97250   0.93347   0.102491  
         H         H         0.04469   0.47297   0.55013   0.100584  
         H         H         0.88778   0.49348   0.65041   0.104703  
         H         H         0.38819   0.00584   0.65204   0.106112  
         H         H         0.53857   0.03437   0.54895   0.100792  
         H         H         0.95094   0.52076   0.93503   0.101803  
         H         H         0.11179   0.50558   0.80603   0.104923  
         C         C         0.00271   0.48358   0.74538   -0.028117           
         C         C         0.49988   0.98319   0.74842   -0.031445           
         C         C         -0.00046  0.51500   0.74848   -0.032575           
         C         C         0.50296   0.01465   0.75021   -0.029093 

