
##########################################################################
#               Crystallographic Information Format file
#               Produced by PyCifRW module
#
#  This is a CIF file.  CIF has been adopted by the International
#  Union of Crystallography as the standard for data archiving and
#  transmission.
#
#  For information on this file format, follow the CIF links at
#  http://www.iucr.org
##########################################################################

data_image0

_cell_length_a                          30.9265
_cell_length_b                          31.1697
_cell_length_c                          7.1942
_cell_angle_alpha                       89.7004
_cell_angle_beta                        90.0735
_cell_angle_gamma                       91.4895
_symmetry_space_group_name_H-M          'P 1'
_space_group_name_Hall                  'P 1'
loop_
  _atom_site_type_symbol
  _atom_site_label
  _atom_site_fract_x
  _atom_site_fract_y
  _atom_site_fract_z
  _atom_site_charge
         C         C         0.98828   0.03920   0.14420   0.079321  
         C         C         0.94586   0.05261   0.17516   -0.137916           
         C         C         0.93710   0.08275   0.31142   -0.105530           
         C         C         0.97057   0.10030   0.42197   0.029791  
         C         C         0.01322   0.08827   0.38513   -0.113528           
         C         C         0.02179   0.05789   0.25070   -0.120462           
         C         C         0.96314   0.12991   0.57406   0.068215  
         N         N         0.92516   0.13897   0.63594   -0.263189           
         C         C         0.92361   0.17115   0.77141   0.116215  
         C         C         0.95076   0.20814   0.76260   -0.156635           
         C         C         0.94969   0.24012   0.89639   -0.144563           
         C         C         0.92054   0.23656   0.04459   0.085685  
         C         C         0.89307   0.20022   0.05534   -0.238581           
         C         C         0.89429   0.16832   0.92074   0.192511  
         O         O         0.86794   0.13170   0.95211   -0.275002           
         H         H         0.91928   0.03912   0.09346   0.106856  
         H         H         0.90423   0.09313   0.33575   0.106878  
         H         H         0.03990   0.10275   0.46302   0.104493  
         H         H         0.05499   0.04858   0.22901   0.111797  
         H         H         0.99265   0.14392   0.63754   0.066677  
         H         H         0.97276   0.21157   0.64535   0.103957  
         H         H         0.97194   0.26775   0.88995   0.114413  
         H         H         0.87045   0.19641   0.17034   0.142149  
         C         C         0.37168   0.32659   0.59913   0.572850  
         C         C         0.40084   0.29816   0.48906   -0.281054           
         O         O         0.34822   0.31555   0.72567   -0.428802           
         H         H         0.38240   0.28923   0.36314   0.148222  
         H         H         0.40556   0.26857   0.56792   0.124860  
         C         C         0.44432   0.31807   0.43117   -0.284812           
         H         H         0.46129   0.29569   0.34050   0.139578  
         C         C         0.47465   0.32637   0.59181   0.630642  
         H         H         0.44060   0.34779   0.35131   0.122642  
         O         O         0.47226   0.30939   0.74511   -0.493722           
         O         O         0.50618   0.35522   0.54189   -0.492657           
         H         H         0.52547   0.36007   0.64861   0.356774  
         C         C         0.48626   0.53640   0.64109   0.079425  
         C         C         0.44395   0.55030   0.66964   -0.139347           
         C         C         0.43503   0.58021   0.80680   -0.100446           
         C         C         0.46826   0.59705   0.92060   0.028793  
         C         C         0.51087   0.58456   0.88594   -0.113757           
         C         C         0.51959   0.55442   0.75075   -0.121603           
         C         C         0.46086   0.62628   0.07438   0.065440  
         N         N         0.42300   0.63562   0.13670   -0.259960           
         C         C         0.42183   0.66758   0.27348   0.114610  
         C         C         0.44845   0.70490   0.26282   -0.156914           
         C         C         0.44758   0.73675   0.39728   -0.142482           
         C         C         0.41923   0.73278   0.54826   0.088529  
         C         C         0.39225   0.69607   0.56088   -0.238863           
         C         C         0.39332   0.66431   0.42546   0.193659  
         O         O         0.36776   0.62720   0.45766   -0.271099           
         H         H         0.41760   0.53721   0.58559   0.106772  
         H         H         0.40221   0.59091   0.82903   0.107411  
         H         H         0.53738   0.59840   0.96680   0.103677  
         H         H         0.55273   0.54466   0.73134   0.113166  
         H         H         0.49048   0.63974   0.13924   0.066399  
         H         H         0.46971   0.70872   0.14328   0.102210  
         H         H         0.46947   0.76462   0.38860   0.111958  
         H         H         0.37023   0.69176   0.67776   0.143574  
         C         C         0.86776   0.82434   0.08832   0.571747  
         C         C         0.89689   0.79905   0.96382   -0.281576           
         O         O         0.84201   0.80965   0.19947   -0.426461           
         H         H         0.87862   0.79495   0.83300   0.147672  
         H         H         0.90002   0.76689   0.02304   0.128474  
         C         C         0.94101   0.81947   0.91941   -0.282591           
         H         H         0.95855   0.79839   0.82468   0.139316  
         C         C         0.96973   0.82584   0.08729   0.626288  
         H         H         0.93810   0.85036   0.84755   0.121101  
         O         O         0.96566   0.80766   0.23762   -0.488950           
         O         O         0.00199   0.85489   0.04775   -0.488758           
         H         H         0.02030   0.85851   0.15840   0.357110  
         C         C         0.01102   0.96570   0.14582   0.080307  
         C         C         0.05349   0.95211   0.17396   -0.137503           
         C         C         0.06278   0.92170   0.31003   -0.113851           
         C         C         0.02976   0.90407   0.42324   0.031158  
         C         C         0.98700   0.91639   0.38972   -0.114502           
         C         C         0.97797   0.94705   0.25552   -0.123171           
         C         C         0.03777   0.87443   0.57620   0.076109  
         N         N         0.07588   0.86579   0.63862   -0.262467           
         C         C         0.07747   0.83323   0.77423   0.117706  
         C         C         0.05059   0.79611   0.76186   -0.158743           
         C         C         0.05056   0.76403   0.89675   -0.144407           
         C         C         0.07843   0.76735   0.04971   0.085737  
         C         C         0.10594   0.80361   0.06304   -0.238062           
         C         C         0.10576   0.83577   0.92744   0.187408  
         O         O         0.13200   0.87234   0.96208   -0.273532           
         H         H         0.07975   0.96557   0.09026   0.106671  
         H         H         0.09570   0.91114   0.33185   0.107746  
         H         H         0.96068   0.90189   0.47016   0.107422  
         H         H         0.94472   0.95649   0.23606   0.112815  
         H         H         0.00848   0.86010   0.64032   0.068188  
         H         H         0.02954   0.79293   0.64122   0.106459  
         H         H         0.02829   0.73650   0.88753   0.111361  
         H         H         0.12770   0.80734   0.18108   0.143416  
         C         C         0.63689   0.67622   0.54847   0.567174  
         C         C         0.60488   0.69892   0.42653   -0.281244           
         O         O         0.66687   0.69292   0.63064   -0.422043           
         H         H         0.61799   0.69685   0.28423   0.146308  
         H         H         0.60624   0.73303   0.46243   0.135652  
         C         C         0.55883   0.68036   0.42497   -0.280066           
         H         H         0.53883   0.69839   0.32659   0.136224  
         C         C         0.53554   0.68091   0.60903   0.629581  
         H         H         0.55799   0.64708   0.37612   0.119257  
         O         O         0.54737   0.69903   0.75133   -0.487901           
         O         O         0.49784   0.65787   0.59454   -0.489423           
         H         H         0.48347   0.65740   0.71581   0.357728  
         C         C         0.50974   0.46329   0.64215   0.077568  
         C         C         0.55248   0.45075   0.67225   -0.138880           
         C         C         0.56218   0.42081   0.80965   -0.118791           
         C         C         0.52930   0.40258   0.92180   0.032765  
         C         C         0.48631   0.41374   0.88589   -0.112963           
         C         C         0.47683   0.44399   0.75059   -0.119777           
         C         C         0.53789   0.37310   0.07465   0.079457  
         N         N         0.57624   0.36572   0.13771   -0.264296           
         C         C         0.57879   0.33312   0.27261   0.118108  
         C         C         0.55379   0.29484   0.25657   -0.159716           
         C         C         0.55478   0.26261   0.39053   -0.139251           
         C         C         0.58169   0.26702   0.54611   0.087036  
         C         C         0.60724   0.30455   0.56342   -0.238370           
         C         C         0.60610   0.33679   0.42861   0.187275  
         O         O         0.63009   0.37468   0.46664   -0.271834           
         H         H         0.57849   0.46474   0.58851   0.106059  
         H         H         0.59528   0.41096   0.83316   0.108164  
         H         H         0.46011   0.39854   0.96466   0.108758  
         H         H         0.44338   0.45256   0.72891   0.113502  
         H         H         0.50900   0.35779   0.13786   0.070775  
         H         H         0.53342   0.29095   0.13421   0.108472  
         H         H         0.53396   0.23407   0.37807   0.105876  
         H         H         0.62823   0.30911   0.68357   0.144651  
         C         C         0.13537   0.17456   0.07191   0.570620  
         C         C         0.10604   0.20091   0.95148   -0.281026           
         O         O         0.16215   0.18817   0.18039   -0.423841           
         H         H         0.12151   0.20214   0.81344   0.146286  
         H         H         0.10693   0.23378   0.00378   0.132030  
         C         C         0.05984   0.18356   0.92868   -0.282689           
         H         H         0.04234   0.20375   0.82930   0.137528  
         C         C         0.03322   0.18322   0.10417   0.630509  
         H         H         0.05894   0.15116   0.87002   0.121688  
         O         O         0.04098   0.20339   0.24637   -0.490035           
         O         O         0.99781   0.15721   0.08144   -0.489286           
         H         H         0.98060   0.15768   0.19551   0.361159  
         C         C         0.03670   0.01468   0.87604   0.079316  
         C         C         0.05169   0.05714   0.84674   -0.142636           
         C         C         0.08275   0.06712   0.71182   -0.109307           
         C         C         0.09982   0.03472   0.60058   0.032787  
         C         C         0.08629   0.99198   0.63619   -0.119265           
         C         C         0.05487   0.98227   0.76877   -0.121365           
         C         C         0.12926   0.04268   0.44476   0.077543  
         N         N         0.13777   0.07995   0.37067   -0.262993           
         C         C         0.16927   0.08037   0.22902   0.116324  
         C         C         0.20636   0.05530   0.24432   -0.157018           
         C         C         0.23710   0.05346   0.10424   -0.140189           
         C         C         0.23230   0.07747   0.94085   0.087777  
         C         C         0.19618   0.10343   0.92411   -0.241822           
         C         C         0.16558   0.10529   0.06623   0.184622  
         O         O         0.12968   0.13077   0.03011   -0.277377           
         H         H         0.03885   0.08278   0.93047   0.106865  
         H         H         0.09410   0.10013   0.69047   0.110014  
         H         H         0.10035   0.96611   0.55777   0.109055  
         H         H         0.04456   0.94900   0.78919   0.114163  
         H         H         0.14314   0.01354   0.38650   0.069745  
         H         H         0.21077   0.03730   0.37222   0.100751  
         H         H         0.26487   0.03298   0.11868   0.106978  
         H         H         0.19155   0.12278   0.79962   0.144230  
         C         C         0.32353   0.63027   0.41823   0.565813  
         C         C         0.29713   0.60076   0.54426   -0.282582           
         O         O         0.30945   0.65550   0.30665   -0.427015           
         H         H         0.29131   0.61985   0.67026   0.147169  
         H         H         0.26544   0.59459   0.48048   0.129180  
         C         C         0.31777   0.55872   0.60065   -0.283606           
         H         H         0.29642   0.54111   0.69877   0.140146  
         C         C         0.32471   0.52908   0.43904   0.630040  
         H         H         0.34855   0.56414   0.67349   0.122941  
         O         O         0.30779   0.53205   0.28599   -0.488748           
         O         O         0.35261   0.49788   0.48634   -0.488154           
         H         H         0.35570   0.47876   0.37946   0.356989  
         C         C         0.53512   0.51264   0.37389   0.081090  
         C         C         0.54970   0.55526   0.34691   -0.141993           
         C         C         0.58090   0.56581   0.21339   -0.113818           
         C         C         0.59845   0.53374   0.10166   0.029845  
         C         C         0.58525   0.49082   0.13483   -0.114046           
         C         C         0.55374   0.48058   0.26611   -0.121167           
         C         C         0.62852   0.54239   0.94898   0.075809  
         N         N         0.63704   0.58008   0.87933   -0.260891           
         C         C         0.66950   0.58166   0.74217   0.117523  
         C         C         0.70688   0.55704   0.76030   -0.163031           
         C         C         0.73857   0.55640   0.62389   -0.136267           
         C         C         0.73447   0.58131   0.46269   0.086596  
         C         C         0.69814   0.60681   0.44365   -0.238112           
         C         C         0.66642   0.60732   0.58134   0.189084  
         O         O         0.62972   0.63156   0.54343   -0.275909           
         H         H         0.53636   0.58052   0.43133   0.107751  
         H         H         0.59200   0.59894   0.19294   0.109341  
         H         H         0.59979   0.46526   0.05622   0.108730  
         H         H         0.54364   0.44721   0.28525   0.115087  
         H         H         0.64302   0.51359   0.89030   0.069669  
         H         H         0.71073   0.53851   0.88722   0.103299  
         H         H         0.76661   0.53630   0.63949   0.108892  
         H         H         0.69426   0.62661   0.31996   0.142761  
         C         C         0.82354   0.13663   0.92030   0.571307  
         C         C         0.79717   0.10868   0.05229   -0.287255           
         O         O         0.80957   0.16217   0.80990   -0.426126           
         H         H         0.79396   0.12832   0.17849   0.148258  
         H         H         0.76449   0.10446   -0.00406  0.131832  
         C         C         0.81638   0.06585   0.10664   -0.278899           
         H         H         0.79547   0.04954   0.21055   0.140685  
         C         C         0.82047   0.03519   0.94664   0.629398  
         H         H         0.84821   0.07006   0.17180   0.121357  
         O         O         0.80088   0.03667   0.79931   -0.488697           
         O         O         0.84895   0.00420   0.99005   -0.489964           
         H         H         0.85029   0.98416   0.88561   0.363507  
         C         C         0.96167   0.98984   0.87890   0.076549  
         C         C         0.94717   0.94717   0.85265   -0.139556           
         C         C         0.91637   0.93674   0.71760   -0.108772           
         C         C         0.89916   0.96879   0.60319   0.032694  
         C         C         0.91197   0.01173   0.63646   -0.117784           
         C         C         0.94302   0.02198   0.76989   -0.121853           
         C         C         0.87041   0.95982   0.44625   0.074128  
         N         N         0.86269   0.92195   0.37830   -0.260298           
         C         C         0.83134   0.91968   0.23618   0.115118  
         C         C         0.79374   0.94416   0.24611   -0.156151           
         C         C         0.76261   0.94376   0.10691   -0.140705           
         C         C         0.76766   0.91819   0.94950   0.086061  
         C         C         0.80447   0.89302   0.93767   -0.241567           
         C         C         0.83539   0.89310   0.07957   0.184818  
         O         O         0.87211   0.86840   0.04823   -0.276372           
         H         H         0.96037   0.92169   0.93748   0.107066  
         H         H         0.90540   0.90361   0.69773   0.108425  
         H         H         0.89785   0.03729   0.55504   0.106557  
         H         H         0.95288   0.05539   0.78845   0.113179  
         H         H         0.85634   0.98843   0.38227   0.067904  
         H         H         0.78925   0.96356   0.36914   0.102207  
         H         H         0.73446   0.96387   0.11673   0.109131  
         H         H         0.80940   0.87284   0.81688   0.143835  
         C         C         0.67473   0.37256   0.43669   0.568329  
         C         C         0.69943   0.40347   0.56129   -0.282397           
         O         O         0.69047   0.34686   0.33283   -0.426820           
         H         H         0.70496   0.38542   0.69128   0.145996  
         H         H         0.73142   0.41025   0.50098   0.132077  
         C         C         0.67738   0.44521   0.60747   -0.285180           
         H         H         0.69692   0.46351   0.70942   0.137746  
         C         C         0.67160   0.47415   0.44115   0.628949  
         H         H         0.64563   0.43961   0.67207   0.121506  
         O         O         0.68812   0.46999   0.28809   -0.489743           
         O         O         0.64475   0.50632   0.48491   -0.489092           
         H         H         0.64109   0.52448   0.37435   0.355255  
         C         C         0.46057   0.48674   0.37306   0.078617  
         C         C         0.44680   0.44390   0.34582   -0.137905           
         C         C         0.41627   0.43303   0.21013   -0.114222           
         C         C         0.39863   0.46486   0.09591   0.034204  
         C         C         0.41096   0.50793   0.12895   -0.118193           
         C         C         0.44177   0.51856   0.26283   -0.123300           
         C         C         0.36944   0.45563   0.94058   0.077418  
         N         N         0.36305   0.41802   0.86790   -0.260291           
         C         C         0.33116   0.41602   0.72791   0.117847  
         C         C         0.29230   0.43810   0.74812   -0.160529           
         C         C         0.26123   0.43918   0.60885   -0.135386           
         C         C         0.26772   0.41769   0.44120   0.084458  
         C         C         0.30540   0.39419   0.42061   -0.239847           
         C         C         0.33603   0.39257   0.56283   0.183687  
         O         O         0.37258   0.36825   0.52453   -0.274692           
         H         H         0.46027   0.41858   0.43068   0.104528  
         H         H         0.40563   0.39978   0.19068   0.111374  
         H         H         0.39640   0.53327   0.04771   0.108467  
         H         H         0.45122   0.55206   0.28130   0.112331  
         H         H         0.35368   0.48391   0.88197   0.069712  
         H         H         0.28661   0.45396   0.87951   0.101745  
         H         H         0.23172   0.45686   0.62815   0.106435  
         H         H         0.31110   0.37628   0.29395   0.145534  
         C         C         0.17642   0.86768   0.93096   0.568719  
         C         C         0.20263   0.89562   0.06275   -0.285917           
         O         O         0.19047   0.84244   0.82055   -0.426805           
         H         H         0.20691   0.87583   0.18888   0.147968  
         H         H         0.23500   0.90116   0.00468   0.129579  
         C         C         0.18256   0.93797   0.11637   -0.282941           
         H         H         0.20488   0.95606   0.20825   0.141671  
         C         C         0.17444   0.96669   0.95181   0.629011  
         H         H         0.15229   0.93324   0.19363   0.122035  
         O         O         0.19053   0.96338   0.79777   -0.488111           
         O         O         0.14679   0.99805   -0.00168  -0.484407           
         H         H         0.14347   0.01690   0.88972   0.357957  
         C         C         0.51327   0.03552   0.61218   0.077366  
         C         C         0.55615   0.05000   0.58254   -0.137683           
         C         C         0.56620   0.08054   0.44588   -0.106393           
         C         C         0.53359   0.09756   0.33316   0.031299  
         C         C         0.49044   0.08461   0.36944   -0.118116           
         C         C         0.48059   0.05379   0.50414   -0.122569           
         C         C         0.54207   0.12676   0.17703   0.072984  
         N         N         0.57999   0.13531   0.10725   -0.260322           
         C         C         0.58174   0.16750   0.96906   0.114938  
         C         C         0.55667   0.20446   0.98511   -0.156418           
         C         C         0.55659   0.23646   0.85014   -0.143186           
         C         C         0.58229   0.23297   0.69133   0.086844  
         C         C         0.60816   0.19699   0.67364   -0.240283           
         C         C         0.60845   0.16514   0.81079   0.190425  
         O         O         0.63385   0.12947   0.77285   -0.273420           
         H         H         0.58209   0.03690   0.66560   0.106443  
         H         H         0.59949   0.09153   0.42320   0.108981  
         H         H         0.46435   0.09852   0.28979   0.105968  
         H         H         0.44701   0.04377   0.52463   0.113417  
         H         H         0.51292   0.14078   0.11619   0.065974  
         H         H         0.53719   0.20774   0.10953   0.100933  
         H         H         0.53601   0.26406   0.86401   0.110541  
         H         H         0.62858   0.19343   0.55192   0.143914  
         C         C         0.13271   0.32221   0.15510   0.572376  
         C         C         0.10221   0.29644   0.27863   -0.290236           
         O         O         0.15841   0.30761   0.04753   -0.431290           
         H         H         0.12159   0.28887   0.40296   0.148672  
         H         H         0.09465   0.26568   0.21214   0.127286  
         C         C         0.06087   0.31789   0.33902   -0.277895           
         H         H         0.04315   0.29659   0.43707   0.141181  
         C         C         0.02997   0.32636   0.18180   0.626571  
         H         H         0.06761   0.34800   0.41274   0.121719  
         O         O         0.03035   0.30984   0.02815   -0.488328           
         O         O         -0.00006  0.35484   0.23609   -0.485876           
         H         H         0.97975   0.35866   0.13223   0.355255  
         C         C         0.00977   0.53663   0.11736   0.077659  
         C         C         0.05243   0.55192   0.09003   -0.137327           
         C         C         0.06218   0.58262   0.95371   -0.110372           
         C         C         0.02943   0.59896   0.83988   0.030254  
         C         C         0.98646   0.58508   0.87331   -0.116892           
         C         C         0.97700   0.55401   0.00722   -0.120695           
         C         C         0.03783   0.62839   0.68477   0.075523  
         N         N         0.07586   0.63716   0.61709   -0.262003           
         C         C         0.07758   0.66901   0.47766   0.115964  
         C         C         0.05257   0.70601   0.49173   -0.158449           
         C         C         0.05252   0.73752   0.35463   -0.140972           
         C         C         0.07826   0.73349   0.19614   0.089596  
         C         C         0.10395   0.69736   0.18055   -0.239690           
         C         C         0.10417   0.66604   0.31982   0.187748  
         O         O         0.12999   0.63035   0.28699   -0.272583           
         H         H         0.07846   0.53951   0.17457   0.105978  
         H         H         0.09529   0.59439   0.93266   0.108411  
         H         H         0.96030   0.59857   0.79277   0.107412  
         H         H         0.94364   0.54322   0.02623   0.110931  
         H         H         0.00876   0.64215   0.62254   0.070107  
         H         H         0.03318   0.70968   0.61613   0.103231  
         H         H         0.03202   0.76522   0.36687   0.107969  
         H         H         0.12438   0.69335   0.05916   0.142583  
         C         C         0.63292   0.82112   0.64532   0.568719  
         C         C         0.60371   0.79246   0.76238   -0.287304           
         O         O         0.65768   0.80967   0.52665   -0.427478           
         H         H         0.62338   0.78364   0.88403   0.149574  
         H         H         0.59703   0.76263   0.68748   0.124136  
         C         C         0.56157   0.81166   0.82823   -0.283624           
         H         H         0.54403   0.78796   0.91629   0.140970  
         C         C         0.53153   0.82234   0.67006   0.630208  
         H         H         0.56699   0.84031   0.91360   0.124759  
         O         O         0.53235   0.80715   0.51387   -0.492171           
         O         O         0.50182   0.85112   0.72400   -0.487822           
         H         H         0.48238   0.85620   0.61840   0.356616  
         C         C         0.48780   0.96129   0.61330   0.077978  
         C         C         0.44490   0.94639   0.58836   -0.140299           
         C         C         0.43433   0.91592   0.45337   -0.110646           
         C         C         0.46649   0.89954   0.33756   0.029494  
         C         C         0.50971   0.91288   0.36903   -0.116518           
         C         C         0.52003   0.94355   0.50231   -0.122077           
         C         C         0.45758   0.87076   0.18188   0.079409  
         N         N         0.41941   0.86182   0.11566   -0.263814           
         C         C         0.41784   0.83024   0.97625   0.115985  
         C         C         0.44393   0.79392   0.98956   -0.154722           
         C         C         0.44471   0.76284   0.85227   -0.143431           
         C         C         0.41845   0.76626   0.69464   0.084815  
         C         C         0.39152   0.80159   0.68032   -0.238332           
         C         C         0.39071   0.83270   0.81915   0.185572  
         O         O         0.36429   0.86785   0.78298   -0.274755           
         H         H         0.41922   0.95890   0.67385   0.107487  
         H         H         0.40100   0.90459   0.43484   0.109887  
         H         H         0.53539   0.89924   0.28693   0.108882  
         H         H         0.55361   0.95378   0.51969   0.113258  
         H         H         0.48659   0.85763   0.11731   0.071000  
         H         H         0.46377   0.79054   0.11320   0.105884  
         H         H         0.46623   0.73591   0.86530   0.100127  
         H         H         0.37070   0.80532   0.55961   0.144560  
         C         C         0.86678   0.67812   0.17898   0.570126  
         C         C         0.89673   0.70404   0.30333   -0.283640           
         O         O         0.83976   0.69245   0.07608   -0.425584           
         H         H         0.87857   0.70791   0.43396   0.148253  
         H         H         0.90083   0.73634   0.24453   0.129482  
         C         C         0.94016   0.68436   0.34822   -0.283274           
         H         H         0.95892   0.70628   0.43916   0.140132  
         C         C         0.96800   0.67685   0.17990   0.630016  
         H         H         0.93610   0.65401   0.42469   0.120511  
         O         O         0.96533   0.69480   0.02894   -0.491050           
         O         O         0.99791   0.64699   0.21936   -0.488993           
         H         H         0.01597   0.64331   0.10876   0.356093  
         C         C         0.98474   0.46232   0.12116   0.078558  
         C         C         0.94193   0.44713   0.09684   -0.141883           
         C         C         0.93135   0.41683   0.96109   -0.110379           
         C         C         0.96345   0.40074   0.84436   0.031430  
         C         C         0.00665   0.41420   0.87574   -0.116843           
         C         C         0.01699   0.44481   0.00936   -0.124283           
         C         C         0.95471   0.37226   0.68749   0.077744  
         N         N         0.91674   0.36376   0.61815   -0.262128           
         C         C         0.91599   0.33263   0.47655   0.116525  
         C         C         0.94162   0.29605   0.49226   -0.157229           
         C         C         0.94353   0.26540   0.35362   -0.139982           
         C         C         0.91913   0.26986   0.19115   0.085587  
         C         C         0.89253   0.30533   0.17422   -0.238156           
         C         C         0.89033   0.33576   0.31535   0.184387  
         O         O         0.86298   0.37028   0.28043   -0.275013           
         H         H         0.91619   0.45930   0.18279   0.107188  
         H         H         0.89802   0.40543   0.94357   0.110122  
         H         H         0.03228   0.40079   0.79270   0.108260  
         H         H         0.05058   0.45519   0.02601   0.113907  
         H         H         0.98381   0.35897   0.62442   0.070108  
         H         H         0.95990   0.29193   0.61972   0.103834  
         H         H         0.96443   0.23805   0.36893   0.100698  
         H         H         0.87268   0.30938   0.05064   0.142854  
         C         C         0.36249   0.17442   0.68378   0.565422  
         C         C         0.39270   0.19834   0.81419   -0.283386           
         O         O         0.33330   0.19024   0.59777   -0.422734           
         H         H         0.37541   0.19835   0.94847   0.147686  
         H         H         0.39463   0.23196   0.76923   0.132910  
         C         C         0.43721   0.17975   0.84496   -0.279068           
         H         H         0.45556   0.19965   0.94541   0.141157  
         C         C         0.46470   0.17764   0.67237   0.626912  
         H         H         0.43488   0.14746   0.90593   0.119876  
         O         O         0.45905   0.19669   0.52567   -0.487773           
         O         O         0.49814   0.15110   0.70393   -0.488873           
         H         H         0.51591   0.15007   0.59140   0.361003  
         C         C         0.46388   0.00967   0.88096   0.080764  
         C         C         0.44985   0.05171   0.90840   -0.141199           
         C         C         0.41892   0.06056   0.04289   -0.111928           
         C         C         0.40117   0.02759   0.15574   0.032107  
         C         C         0.41400   0.98531   0.12275   -0.118886           
         C         C         0.44515   0.97670   0.99020   -0.121119           
         C         C         0.37157   0.03495   0.30978   0.074297  
         N         N         0.36242   0.07249   0.37270   -0.263131           
         C         C         0.33064   0.07374   0.51238   0.112402  
         C         C         0.29404   0.04578   0.51038   -0.157812           
         C         C         0.26235   0.04638   0.64716   -0.145817           
         C         C         0.26563   0.07607   0.79222   0.090673  
         C         C         0.30161   0.10421   0.79683   -0.242946           
         C         C         0.33341   0.10333   0.65956   0.192383  
         O         O         0.37010   0.13009   0.68550   -0.271374           
         H         H         0.46342   0.07794   0.82492   0.107932  
         H         H         0.40820   0.09318   0.06403   0.107887  
         H         H         0.39954   0.95894   0.20243   0.107425  
         H         H         0.45494   0.94380   0.97147   0.112782  
         H         H         0.35811   0.00553   0.37508   0.069146  
         H         H         0.29079   0.02331   0.39585   0.104904  
         H         H         0.23514   0.02345   0.64512   0.112917  
         H         H         0.30521   0.12712   0.90974   0.142808  
         C         C         0.17437   0.63803   0.31903   0.566945  
         C         C         0.20134   0.60913   0.20081   -0.280398           
         O         O         0.18816   0.66634   0.41877   -0.427937           
         H         H         0.20656   0.62716   0.06994   0.147648  
         H         H         0.23327   0.60714   0.26536   0.128242  
         C         C         0.18196   0.56500   0.15442   -0.283010           
         H         H         0.20462   0.54769   0.06566   0.138853  
         C         C         0.17316   0.53668   0.32166   0.629006  
         H         H         0.15196   0.56744   0.07426   0.122296  
         O         O         0.18865   0.54112   0.47675   -0.489146           
         O         O         0.14498   0.50417   0.27613   -0.489371           
         H         H         0.13980   0.48646   0.38767   0.357292  
         C         C         0.96031   0.51151   0.38625   0.078157  
         C         C         0.94588   0.55358   0.40904   -0.137886           
         C         C         0.91544   0.56316   0.54453   -0.109719           
         C         C         0.89855   0.53087   0.66311   0.032584  
         C         C         0.91138   0.48843   0.63369   -0.124503           
         C         C         0.94205   0.47909   0.49992   -0.121600           
         C         C         0.87032   0.53895   0.82117   0.073589  
         N         N         0.86279   0.57664   0.88712   -0.259771           
         C         C         0.83194   0.57812   0.03088   0.111511  
         C         C         0.79500   0.55059   0.02977   -0.155560           
         C         C         0.76376   0.55107   0.16817   -0.148666           
         C         C         0.76787   0.58029   0.31461   0.089832  
         C         C         0.80412   0.60810   0.31876   -0.234720           
         C         C         0.83551   0.60729   0.17968   0.187908  
         O         O         0.87230   0.63391   0.20743   -0.273284           
         H         H         0.95881   0.57942   0.32180   0.109155  
         H         H         0.90457   0.59585   0.56144   0.109702  
         H         H         0.89751   0.46257   0.71825   0.108508  
         H         H         0.95190   0.44611   0.48451   0.113438  
         H         H         0.85671   0.50975   0.88785   0.069282  
         H         H         0.79104   0.52854   0.91419   0.103540  
         H         H         0.73617   0.52859   0.16592   0.110685  
         H         H         0.80838   0.63079   0.43219   0.142672  
         C         C         0.67804   0.13386   0.81577   0.569778  
         C         C         0.70425   0.10419   0.69756   -0.282904           
         O         O         0.69248   0.16008   0.92404   -0.428921           
         H         H         0.71042   0.12215   0.56717   0.146580  
         H         H         0.73579   0.10034   0.76383   0.128255  
         C         C         0.68342   0.06076   0.65065   -0.282214           
         H         H         0.70498   0.04312   0.55811   0.139148  
         C         C         0.67490   0.03233   0.81768   0.632684  
         H         H         0.65300   0.06418   0.57434   0.120495  
         O         O         0.69043   0.03674   0.97269   -0.490628           
         O         O         0.64695   -0.00024  0.77124   -0.489538           
         H         H         0.64221   0.98157   0.88158   0.355482  
         C         C         0.53804   0.98627   0.87985   0.075951  
         C         C         0.55171   0.94401   0.90671   -0.138842           
         C         C         0.58214   0.93425   0.04293   -0.109556           
         C         C         0.59973   0.96660   0.15807   0.030457  
         C         C         0.58750   0.00917   0.12492   -0.116612           
         C         C         0.55694   0.01871   0.99027   -0.121075           
         C         C         0.62882   0.95860   0.31413   0.074657  
         N         N         0.63751   0.92092   0.37891   -0.260396           
         C         C         0.66926   0.91960   0.51921   0.116060  
         C         C         0.70615   0.94713   0.51342   -0.156452           
         C         C         0.73773   0.94706   0.65101   -0.146316           
         C         C         0.73428   0.91822   0.80036   0.090777  
         C         C         0.69808   0.89030   0.80844   -0.237195           
         C         C         0.66631   0.89078   0.67065   0.185912  
         O         O         0.62987   0.86388   0.70249   -0.272791           
         H         H         0.53822   0.91815   0.82225   0.107534  
         H         H         0.59245   0.90140   0.06324   0.111512  
         H         H         0.60207   0.03502   0.20629   0.106326  
         H         H         0.54773   0.05184   0.97140   0.112384  
         H         H         0.64235   0.98782   0.37954   0.069363  
         H         H         0.70967   0.96887   0.39542   0.104802  
         H         H         0.76496   0.96991   0.64618   0.109618  
         H         H         0.69400   0.86792   0.92403   0.145954  
         C         C         0.81916   0.36143   0.32180   0.566510  
         C         C         0.78966   0.38856   0.20553   -0.285339           
         O         O         0.80747   0.33340   0.42849   -0.424630           
         H         H         0.78419   0.37026   0.07636   0.148633  
         H         H         0.75828   0.38858   0.27550   0.129681  
         C         C         0.80612   0.43372   0.15451   -0.283246           
         H         H         0.78015   0.45071   0.08202   0.141868  
         C         C         0.81866   0.46046   0.32104   0.628827  
         H         H         0.83362   0.43315   0.05890   0.122351  
         O         O         0.80300   0.45722   0.47651   -0.490551           
         O         O         0.85059   0.48957   0.27674   -0.482442           
         H         H         0.85728   0.50637   0.38891   0.354750  
         C         C         0.03468   0.48856   0.38712   0.080659  
         C         C         0.04902   0.44658   0.41485   -0.141885           
         C         C         0.07989   0.43759   0.55006   -0.112339           
         C         C         0.09727   0.47045   0.66311   0.031124  
         C         C         0.08422   0.51273   0.62975   -0.118467           
         C         C         0.05316   0.52149   0.49617   -0.122300           
         C         C         0.12696   0.46278   0.81705   0.073299  
         N         N         0.13648   0.42500   0.87800   -0.260653           
         C         C         0.16853   0.42319   0.01648   0.112254  
         C         C         0.20484   0.45153   0.01561   -0.156632           
         C         C         0.23685   0.45014   0.15122   -0.149254           
         C         C         0.23431   0.41921   0.29289   0.089556  
         C         C         0.19858   0.39070   0.29651   -0.236875           
         C         C         0.16635   0.39252   0.16115   0.190366  
         O         O         0.12944   0.36619   0.18976   -0.271588           
         H         H         0.03562   0.42045   0.33168   0.107609  
         H         H         0.09077   0.40499   0.57200   0.111089  
         H         H         0.09847   0.53894   0.71002   0.108172  
         H         H         0.04330   0.55439   0.47679   0.113634  
         H         H         0.14019   0.49200   0.88355   0.069383  
         H         H         0.20751   0.47505   0.90359   0.106795  
         H         H         0.26372   0.47346   0.15054   0.113525  
         H         H         0.19522   0.36704   0.40760   0.145007  
         C         C         0.32053   0.86266   0.83275   0.568555  
         C         C         0.29301   0.88999   0.70840   -0.283980           
         O         O         0.30769   0.83775   0.95094   -0.424385           
         H         H         0.28836   0.87123   0.57998   0.147711  
         H         H         0.26102   0.89220   0.77141   0.130350  
         C         C         0.31216   0.93408   0.65713   -0.280610           
         H         H         0.28961   0.95070   0.56423   0.138898  
         C         C         0.31979   0.96318   0.82177   0.628416  
         H         H         0.34256   0.93164   0.58037   0.121105  
         O         O         0.30101   0.96112   0.97118   -0.490275           
         O         O         0.35073   0.99354   0.78089   -0.486574           
         H         H         0.35458   0.01221   0.88949   0.357789  
         C         C         -0.00062  0.00241   0.01076   0.003994  
         C         C         0.49774   0.49981   0.50697   0.004295  
         C         C         0.50083   0.99825   0.74658   0.004206  
         C         C         0.99741   0.49969   0.25309   0.003883 

