
##########################################################################
#               Crystallographic Information Format file
#               Produced by PyCifRW module
#
#  This is a CIF file.  CIF has been adopted by the International
#  Union of Crystallography as the standard for data archiving and
#  transmission.
#
#  For information on this file format, follow the CIF links at
#  http://www.iucr.org
##########################################################################

data_image0

_cell_length_a                          37.1927
_cell_length_b                          37.2172
_cell_length_c                          8.13656
_cell_angle_alpha                       89.9557
_cell_angle_beta                        88.848
_cell_angle_gamma                       120.462
_symmetry_space_group_name_H-M          'P 1'
_space_group_name_Hall                  'P 1'
loop_
  _atom_site_type_symbol
  _atom_site_label
  _atom_site_fract_x
  _atom_site_fract_y
  _atom_site_fract_z
  _atom_site_charge
         C         C         0.29137   0.64033   0.37148   0.079728  
         C         C         0.31757   0.62343   0.37197   -0.185164           
         C         C         0.24557   0.61313   0.37309   0.052810  
         C         C         0.37557   0.59134   0.31109   -0.123040           
         C         C         0.40034   0.57328   0.31880   -0.172584           
         C         C         0.43918   0.59404   0.39636   0.200540  
         C         C         0.45248   0.63387   0.45980   -0.157517           
         C         C         0.42720   0.65133   0.45540   -0.129545           
         N         N         0.46625   0.57850   0.41168   -0.287612           
         C         C         0.45096   0.53850   0.41518   0.088901  
         C         C         0.47736   0.52023   0.42207   -0.011127           
         C         C         0.45884   0.47615   0.41998   0.199959  
         C         C         0.48383   0.45833   0.42204   -0.224488           
         O         O         0.41598   0.45294   0.41725   -0.220226           
         C         C         0.37398   0.37721   0.42675   -0.014328           
         O         O         0.34628   0.34214   0.32527   -0.224360           
         C         C         0.34826   0.30658   0.34957   0.184520  
         C         C         0.31299   0.27080   0.40662   -0.199648           
         C         C         0.31346   0.23342   0.43009   -0.072721           
         C         C         0.34927   0.23195   0.39833   -0.164033           
         C         C         0.38591   0.26803   0.33904   0.048620  
         C         C         0.38565   0.30600   0.31121   0.086685  
         N         N         0.41973   0.34160   0.25205   -0.283004           
         C         C         0.45461   0.34087   0.22367   0.098412  
         C         C         0.45836   0.30534   0.25048   -0.149078           
         C         C         0.42397   0.26898   0.30662   -0.098128           
         C         C         0.60928   0.58822   0.33085   -0.011240           
         H         H         0.30377   0.58975   0.37113   0.099720  
         H         H         0.34664   0.57564   0.24399   0.104828  
         H         H         0.39039   0.54372   0.25869   0.112590  
         H         H         0.47660   0.64630   0.04762   0.104265  
         H         H         0.43132   0.67731   0.03510   0.103279  
         H         H         0.41731   0.51630   0.41308   0.069270  
         H         H         0.47043   0.42468   0.41895   0.135872  
         H         H         0.39517   0.37027   0.49289   0.080048  
         H         H         0.35492   0.37987   0.02135   0.077190  
         H         H         0.28519   0.27235   0.43645   0.129218  
         H         H         0.28548   0.20592   0.47757   0.104686  
         H         H         0.34995   0.20339   0.41835   0.107722  
         H         H         0.48136   0.36997   0.17850   0.081834  
         H         H         0.48826   0.30732   0.22820   0.111871  
         H         H         0.42553   0.24090   0.32817   0.109302  
         H         H         0.63289   0.58601   0.25555   0.082005  
         H         H         0.58686   0.58946   0.24934   0.078534  
         C         C         0.36113   0.64891   0.37616   0.078987  
         C         C         0.35306   0.71024   0.37763   0.079634  
         C         C         0.71123   0.36064   0.38105   0.079816  
         C         C         0.64203   0.35330   0.37480   0.080254  
         C         C         0.64872   0.29123   0.38677   0.079804  
         C         C         0.37834   0.69229   0.37827   -0.186055           
         C         C         0.30965   0.68383   0.37379   -0.187240           
         C         C         0.68566   0.37826   0.37491   -0.186901           
         C         C         0.62412   0.30984   0.37941   -0.185203           
         C         C         0.69226   0.31708   0.38696   -0.186654           
         C         C         0.38804   0.63042   0.38123   0.054413  
         C         C         0.37171   0.75587   0.38467   0.055085  
         C         C         0.75705   0.38724   0.38618   0.052706  
         C         C         0.61540   0.37215   0.37657   0.053126  
         C         C         0.62918   0.24550   0.39735   0.052191  
         C         C         0.41110   0.78316   0.31198   -0.122765           
         C         C         0.21981   0.62631   0.30282   -0.121155           
         C         C         0.62795   0.41062   0.29849   -0.122116           
         C         C         0.59123   0.21886   0.32075   -0.124402           
         C         C         0.78364   0.37469   0.31439   -0.121604           
         C         C         0.42901   0.82621   0.32105   -0.175064           
         C         C         0.17656   0.60151   0.31018   -0.174691           
         C         C         0.60319   0.42880   0.30618   -0.175325           
         C         C         0.57272   0.17573   0.33104   -0.172951           
         C         C         0.82681   0.39938   0.32271   -0.175220           
         C         C         0.40788   0.84374   0.40297   0.200857  
         C         C         0.15723   0.56208   0.38866   0.203175  
         C         C         0.56456   0.40878   0.39244   0.200996  
         C         C         0.59192   0.15749   0.41850   0.197200  
         C         C         0.84512   0.43810   0.40263   0.200582  
         C         C         0.36794   0.81651   0.47070   -0.158761           
         C         C         0.18292   0.54781   0.45009   -0.160504           
         C         C         0.55109   0.36943   0.46376   -0.161199           
         C         C         0.63036   0.18409   0.49155   -0.159223           
         C         C         0.81868   0.45157   0.46770   -0.160668           
         C         C         0.35057   0.77357   0.46440   -0.130402           
         C         C         0.22607   0.57308   0.44546   -0.127622           
         C         C         0.57627   0.35189   0.45863   -0.129326           
         C         C         0.64826   0.22708   0.48352   -0.129550           
         C         C         0.77560   0.42634   0.46229   -0.129388           
         N         N         0.42333   0.88655   0.41766   -0.286189           
         N         N         0.11410   0.53543   0.40601   -0.287455           
         N         N         0.53789   0.42481   0.40846   -0.284034           
         N         N         0.57624   0.11459   0.43327   -0.286615           
         N         N         0.88808   0.46498   0.41653   -0.286830           
         C         C         0.46336   0.91176   0.42084   0.089044  
         C         C         0.09015   0.55136   0.41321   0.089271  
         C         C         0.55370   0.46479   0.41805   0.089579  
         C         C         0.53630   0.08913   0.42948   0.088957  
         C         C         0.91216   0.44931   0.42585   0.090782  
         C         C         0.48166   0.95670   0.42558   -0.011103           
         C         C         0.04501   0.52541   0.42184   -0.010225           
         C         C         0.52752   0.48341   0.42455   -0.011693           
         C         C         0.51816   0.04416   0.43083   -0.010925           
         C         C         0.95727   0.47542   0.42882   -0.012077           
         C         C         0.52576   0.98301   0.42348   0.199228  
         C         C         0.01980   0.54404   0.41789   0.198928  
         C         C         0.54604   0.52745   0.42808   0.198499  
         C         C         0.47409   0.01783   0.42803   0.198459  
         C         C         0.98247   0.45677   0.43173   0.200918  
         C         C         0.54344   0.02604   0.42855   -0.223022           
         C         C         0.97661   0.51915   0.42346   -0.223161           
         C         C         0.52104   0.54531   0.42757   -0.220545           
         C         C         0.45640   0.97479   0.42803   -0.224731           
         C         C         0.02566   0.48171   0.42996   -0.223453           
         O         O         0.54901   0.96370   0.41718   -0.221136           
         O         O         0.04022   0.58692   0.40871   -0.224466           
         O         O         0.58892   0.55068   0.43280   -0.222961           
         O         O         0.45082   0.03710   0.42621   -0.219522           
         O         O         0.96207   0.41388   0.43778   -0.222718           
         C         C         0.62452   0.99742   0.42387   -0.013128           
         C         C         0.00598   0.62805   0.40910   -0.015037           
         C         C         0.62974   0.62623   0.44019   -0.014900           
         C         C         0.37487   0.00060   0.44678   -0.013349           
         C         C         0.99686   0.37315   0.45515   -0.018337           
         O         O         0.66039   0.00695   0.31788   -0.225709           
         O         O         -0.00024  0.65555   0.30088   -0.225175           
         O         O         0.65817   0.66248   0.34038   -0.224981           
         O         O         0.33926   0.99271   0.34960   -0.224692           
         O         O         0.00303   0.34361   0.35897   -0.223262           
         C         C         0.69556   0.04485   0.34550   0.186521  
         C         C         0.96292   0.65527   0.32621   0.186051  
         C         C         0.65401   0.69692   0.36055   0.184895  
         C         C         0.30388   0.95439   0.37354   0.184883  
         C         C         0.04125   0.34660   0.37297   0.183845  
         C         C         0.73149   0.04577   0.39313   -0.200163           
         C         C         0.96452   0.69197   0.36960   -0.200454           
         C         C         0.68720   0.73293   0.42159   -0.198922           
         C         C         0.26785   0.95283   0.43106   -0.198928           
         C         C         0.04268   0.31260   0.43329   -0.199697           
         C         C         0.76843   0.08404   0.42119   -0.073284           
         C         C         0.92751   0.69335   0.39389   -0.073113           
         C         C         0.68489   0.76943   0.44145   -0.075421           
         C         C         0.23037   0.91430   0.45325   -0.072283           
         C         C         0.08104   0.31360   0.44439   -0.072598           
         C         C         0.76923   0.12132   0.40337   -0.165645           
         C         C         0.88892   0.65802   0.37613   -0.164925           
         C         C         0.64933   0.76991   0.40045   -0.164390           
         C         C         0.22889   0.87734   0.41752   -0.164463           
         C         C         0.11795   0.34864   0.39601   -0.165107           
         C         C         0.73310   0.12148   0.35184   0.049397  
         C         C         0.88620   0.62004   0.32884   0.050029  
         C         C         0.61498   0.73374   0.33550   0.047948  
         C         C         0.26504   0.87790   0.35529   0.049358  
         C         C         0.11753   0.38391   0.33268   0.048419  
         C         C         0.69569   0.08290   0.31894   0.086701  
         C         C         0.92355   0.61836   0.30016   0.086131  
         C         C         0.61691   0.69645   0.31333   0.087713  
         C         C         0.30336   0.91682   0.33131   0.085530  
         C         C         0.07874   0.38320   0.31865   0.087388  
         N         N         0.66036   0.08097   0.26341   -0.281551           
         N         N         0.92305   0.58321   0.24831   -0.282589           
         N         N         0.58495   0.66093   0.24891   -0.283580           
         N         N         0.33895   0.91937   0.26852   -0.282949           
         N         N         0.07619   0.41574   0.25451   -0.281641           
         C         C         0.66090   0.11657   0.24142   0.097573  
         C         C         0.88623   0.54918   0.22681   0.098709  
         C         C         0.55071   0.66125   0.20812   0.098644  
         C         C         0.33761   0.88408   0.22970   0.099399  
         C         C         0.11140   0.44953   0.20600   0.098377  
         C         C         0.69582   0.15620   0.27379   -0.148562           
         C         C         0.84764   0.54730   0.25564   -0.147876           
         C         C         0.54556   0.69620   0.22732   -0.146195           
         C         C         0.30150   0.84417   0.25001   -0.147402           
         C         C         0.15124   0.45361   0.21738   -0.147324           
         C         C         0.73176   0.15853   0.32848   -0.099311           
         C         C         0.84770   0.58264   0.30620   -0.098504           
         C         C         0.57777   0.73236   0.28965   -0.099968           
         C         C         0.26537   0.84119   0.31222   -0.099011           
         C         C         0.15416   0.42081   0.27971   -0.100215           
         C         C         0.41294   0.01751   0.33229   -0.011943           
         C         C         0.98014   0.39366   0.34248   -0.012790           
         C         C         0.39756   0.41578   0.31745   -0.011933           
         C         C         0.58690   0.98335   0.31618   -0.014198           
         C         C         0.02255   0.60549   0.30477   -0.006939           
         H         H         0.41200   0.71255   0.38268   0.099828  
         H         H         0.28972   0.69739   0.37450   0.099715  
         H         H         0.69988   0.41199   0.37220   0.099182  
         H         H         0.59036   0.29005   0.37937   0.100353  
         H         H         0.71178   0.30314   0.39342   0.100481  
         H         H         0.42712   0.77029   0.24206   0.105106  
         H         H         0.23411   0.65599   0.23675   0.104305  
         H         H         0.65703   0.42590   0.22692   0.103858  
         H         H         0.57697   0.23230   0.24594   0.105057  
         H         H         0.77020   0.34588   0.24531   0.104927  
         H         H         0.45884   0.84653   0.25902   0.112790  
         H         H         0.15754   0.61189   0.24958   0.113421  
         H         H         0.61290   0.45793   0.24079   0.111679  
         H         H         0.54444   0.15601   0.26406   0.112103  
         H         H         0.84663   0.38969   0.26067   0.111990  
         H         H         0.35195   0.82741   0.06816   0.103625  
         H         H         0.16719   0.52221   0.05136   0.103645  
         H         H         0.51859   0.35337   0.02463   0.103807  
         H         H         0.64382   0.16904   0.05764   0.105075  
         H         H         0.82957   0.47695   0.06511   0.104428  
         H         H         0.32150   0.75079   0.04950   0.103050  
         H         H         0.24413   0.56753   0.03907   0.103182  
         H         H         0.56324   0.32157   0.02378   0.103476  
         H         H         0.67588   0.24573   0.04420   0.104410  
         H         H         0.75264   0.43201   0.04893   0.102884  
         H         H         0.48539   0.90041   0.42114   0.069460  
         H         H         0.10273   0.58513   0.41371   0.068423  
         H         H         0.58744   0.48644   0.42283   0.070170  
         H         H         0.51409   0.10025   0.42521   0.070102  
         H         H         0.89973   0.41558   0.43194   0.069934  
         H         H         0.57714   0.04678   0.42723   0.136664  
         H         H         0.95666   0.53271   0.42206   0.136498  
         H         H         0.53458   0.57902   0.42805   0.136285  
         H         H         0.42273   0.95402   0.42662   0.135903  
         H         H         0.04561   0.46817   0.43291   0.136460  
         H         H         0.63083   0.02454   0.49765   0.081007  
         H         H         0.97694   0.60629   0.47525   0.082707  
         H         H         0.60664   0.63144   0.50483   0.079017  
         H         H         0.36874   0.97223   0.51248   0.080104  
         H         H         0.02594   0.39599   0.51293   0.080484  
         H         H         0.61785   0.96910   -0.00194  0.076450  
         H         H         0.02917   0.64769   -0.00114  0.076300  
         H         H         0.64973   0.62503   0.01931   0.077029  
         H         H         0.37251   0.01990   0.04187   0.076864  
         H         H         0.97894   0.35517   0.05622   0.077173  
         H         H         0.73031   0.01626   0.41158   0.128900  
         H         H         0.99494   0.71955   0.38703   0.128596  
         H         H         0.71485   0.73225   0.45733   0.129786  
         H         H         0.26931   0.98198   0.46111   0.129151  
         H         H         0.01358   0.28535   0.47392   0.129592  
         H         H         0.79615   0.08385   0.46001   0.104649  
         H         H         0.92970   0.72255   0.42947   0.104303  
         H         H         0.71118   0.79699   0.49268   0.105381  
         H         H         0.20271   0.91399   0.50122   0.103315  
         H         H         0.08126   0.28659   0.49418   0.104572  
         H         H         0.79732   0.15086   0.42756   0.108568  
         H         H         0.86037   0.65886   0.39710   0.109016  
         H         H         0.64703   0.79768   0.41757   0.107744  
         H         H         0.20018   0.84756   0.43515   0.108378  
         H         H         0.14765   0.34976   0.40543   0.107902  
         H         H         0.63217   0.11396   0.19711   0.081066  
         H         H         0.88707   0.52170   0.18592   0.081247  
         H         H         0.52559   0.63241   0.15782   0.081150  
         H         H         0.36654   0.88721   0.17964   0.080448  
         H         H         0.10823   0.47494   0.15540   0.080906  
         H         H         0.69374   0.18407   0.25606   0.111110  
         H         H         0.81864   0.51805   0.23845   0.110650  
         H         H         0.51647   0.69422   0.19356   0.109930  
         H         H         0.30257   0.81642   0.21677   0.110094  
         H         H         0.17897   0.48238   0.17750   0.110280  
         H         H         0.75934   0.18840   0.35459   0.108887  
         H         H         0.81860   0.58233   0.32983   0.109351  
         H         H         0.57523   0.76005   0.30564   0.108701  
         H         H         0.23688   0.81107   0.32876   0.109104  
         H         H         0.18426   0.42279   0.29006   0.109838  
         H         H         0.41469   0.04211   0.25231   0.083284  
         H         H         0.95460   0.36977   0.27042   0.083770  
         H         H         0.37603   0.41868   0.23592   0.081883  
         H         H         0.58435   0.95954   0.23015   0.080269  
         H         H         0.04824   0.62783   0.22407   0.082793  
         H         H         0.41164   0.99283   0.25497   0.079100  
         H         H         0.00466   0.41590   0.25798   0.078876  
         H         H         0.42147   0.41419   0.24224   0.079474  
         H         H         0.58956   0.00969   0.24571   0.077986  
         H         H         0.99801   0.58184   0.22871   0.080315  
         C         C         0.28966   0.63981   0.86769   0.079605  
         C         C         0.31572   0.62275   0.86857   -0.186081           
         C         C         0.24384   0.61255   0.87236   0.053255  
         C         C         0.37560   0.59222   0.79823   -0.123540           
         C         C         0.40052   0.57434   0.80905   -0.174408           
         C         C         0.43716   0.59344   0.90161   0.198731  
         C         C         0.44836   0.63159   0.97695   -0.157895           
         C         C         0.42315   0.64904   0.96762   -0.130095           
         N         N         0.46411   0.57784   0.91997   -0.286953           
         C         C         0.44899   0.53789   0.91705   0.089418  
         C         C         0.47543   0.51963   0.92328   -0.013456           
         C         C         0.45711   0.47560   0.91697   0.202122  
         C         C         0.48213   0.45781   0.91782   -0.227638           
         O         O         0.41434   0.45271   0.91017   -0.218716           
         C         C         0.37430   0.37639   0.92649   -0.015589           
         O         O         0.34636   0.34137   0.82512   -0.223327           
         C         C         0.34848   0.30581   0.84544   0.184859  
         C         C         0.31309   0.26961   0.89878   -0.199635           
         C         C         0.31348   0.23204   0.91679   -0.071844           
         C         C         0.34937   0.23078   0.88381   -0.166654           
         C         C         0.38619   0.26734   0.82880   0.049480  
         C         C         0.38597   0.30549   0.80571   0.086309  
         N         N         0.41996   0.34138   0.74795   -0.282219           
         C         C         0.45482   0.34082   0.71685   0.099674  
         C         C         0.45867   0.30523   0.74035   -0.149045           
         C         C         0.42433   0.26858   0.79445   -0.098908           
         C         C         0.60707   0.58744   0.82774   -0.010589           
         H         H         0.30184   0.58904   0.87006   0.101479  
         H         H         0.34828   0.57780   0.72138   0.103607  
         H         H         0.39253   0.54627   0.74054   0.111150  
         H         H         0.48281   0.65022   0.51584   0.103433  
         H         H         0.43746   0.68113   0.51423   0.104182  
         H         H         0.41542   0.51578   0.90950   0.070269  
         H         H         0.46882   0.42421   0.91174   0.134760  
         H         H         0.39633   0.36983   0.98802   0.080883  
         H         H         0.35428   0.38131   0.51798   0.075611  
         H         H         0.28522   0.27098   0.92897   0.128905  
         H         H         0.28524   0.20414   0.96005   0.104223  
         H         H         0.34985   0.20198   0.89930   0.108794  
         H         H         0.48147   0.37006   0.67195   0.081240  
         H         H         0.48855   0.30729   0.71666   0.111850  
         H         H         0.42606   0.24049   0.81272   0.109262  
         H         H         0.62963   0.58416   0.74966   0.081339  
         H         H         0.58408   0.58863   0.74928   0.078637  
         C         C         0.35928   0.64823   0.87110   0.080988  
         C         C         0.35136   0.70958   0.87363   0.080816  
         C         C         0.70925   0.35997   0.88331   0.081861  
         C         C         0.63991   0.35225   0.87755   0.079546  
         C         C         0.64700   0.29029   0.88656   0.080030  
         C         C         0.37665   0.69165   0.87262   -0.187109           
         C         C         0.30792   0.68329   0.86964   -0.189078           
         C         C         0.68356   0.37745   0.87816   -0.187555           
         C         C         0.62221   0.30878   0.88101   -0.187941           
         C         C         0.69053   0.31642   0.88714   -0.187284           
         C         C         0.38609   0.62966   0.87865   0.051540  
         C         C         0.36988   0.75513   0.88532   0.053162  
         C         C         0.75503   0.38662   0.89145   0.050630  
         C         C         0.61317   0.37102   0.87845   0.052915  
         C         C         0.62769   0.24450   0.89612   0.052016  
         C         C         0.40751   0.78312   0.80264   -0.123520           
         C         C         0.21783   0.62276   0.78554   -0.124880           
         C         C         0.62600   0.40947   0.79936   -0.122159           
         C         C         0.58961   0.21775   0.82041   -0.122699           
         C         C         0.78210   0.37590   0.81113   -0.123020           
         C         C         0.42501   0.82605   0.81653   -0.175850           
         C         C         0.17454   0.59762   0.79526   -0.175913           
         C         C         0.60159   0.42803   0.80584   -0.174775           
         C         C         0.57107   0.17460   0.83170   -0.175871           
         C         C         0.82521   0.40034   0.82513   -0.177770           
         C         C         0.40535   0.84259   0.91478   0.198914  
         C         C         0.15566   0.56118   0.89388   0.198276  
         C         C         0.56288   0.40833   0.89155   0.201010  
         C         C         0.59014   0.15629   0.91949   0.199269  
         C         C         0.84289   0.43690   0.91942   0.200137  
         C         C         0.36710   0.81459   0.99337   -0.158732           
         C         C         0.18175   0.55015   0.97520   -0.161702           
         C         C         0.54896   0.36889   0.96293   -0.161702           
         C         C         0.62890   0.18297   0.99048   -0.156577           
         C         C         0.81592   0.44858   0.99387   -0.159210           
         C         C         0.35000   0.77180   0.98067   -0.131202           
         C         C         0.22484   0.57549   0.96645   -0.129537           
         C         C         0.57387   0.35100   0.95927   -0.129464           
         C         C         0.64697   0.22602   0.98079   -0.130701           
         C         C         0.77294   0.42364   0.98223   -0.129904           
         N         N         0.42063   0.88524   0.93503   -0.285100           
         N         N         0.11254   0.53438   0.91366   -0.282204           
         N         N         0.53635   0.42452   0.90698   -0.284639           
         N         N         0.57391   0.11329   0.93508   -0.285792           
         N         N         0.88586   0.46339   0.93642   -0.281425           
         C         C         0.46063   0.91078   0.92921   0.088733  
         C         C         0.08825   0.54991   0.91254   0.089298  
         C         C         0.55213   0.46451   0.91550   0.090177  
         C         C         0.53382   0.08827   0.93654   0.089946  
         C         C         0.90989   0.44764   0.94366   0.089423  
         C         C         0.47880   0.95574   0.93508   -0.009043           
         C         C         0.04305   0.52375   0.92399   -0.010675           
         C         C         0.52584   0.48301   0.92248   -0.009912           
         C         C         0.51523   0.04321   0.93893   -0.011425           
         C         C         0.95516   0.47367   0.94250   -0.011498           
         C         C         0.52290   0.98208   0.93110   0.199449  
         C         C         0.01778   0.54228   0.92145   0.199958  
         C         C         0.54415   0.52698   0.92869   0.198164  
         C         C         0.47111   0.01689   0.93958   0.199276  
         C         C         0.98045   0.45509   0.94380   0.198908  
         C         C         0.54048   0.02509   0.93538   -0.221309           
         C         C         0.97456   0.51740   0.93153   -0.223152           
         C         C         0.51905   0.54472   0.93005   -0.218649           
         C         C         0.45350   0.97382   0.93955   -0.223215           
         C         C         0.02365   0.48011   0.93467   -0.221290           
         O         O         0.54647   0.96305   0.92578   -0.222756           
         O         O         0.03829   0.58508   0.90917   -0.221867           
         O         O         0.58707   0.55063   0.93357   -0.224968           
         O         O         0.44761   0.03602   0.94176   -0.223288           
         O         O         0.96053   0.41216   0.95572   -0.225685           
         C         C         0.62188   0.99484   0.91876   -0.011309           
         C         C         0.00474   0.62687   0.91504   -0.016011           
         C         C         0.62895   0.62680   0.92977   -0.011727           
         C         C         0.37111   0.99808   0.94810   -0.017112           
         C         C         0.99871   0.37406   0.95194   -0.020917           
         O         O         0.65738   0.00558   0.80890   -0.226760           
         O         O         0.99640   0.65308   0.80834   -0.225021           
         O         O         0.65485   0.66157   0.81811   -0.228420           
         O         O         0.33634   0.98912   0.84276   -0.225222           
         O         O         0.00541   0.34683   0.84308   -0.224502           
         C         C         0.69215   0.04362   0.84040   0.182418  
         C         C         0.95834   0.65014   0.83529   0.184325  
         C         C         0.65158   0.69642   0.84227   0.185425  
         C         C         0.30140   0.95037   0.86710   0.184776  
         C         C         0.04338   0.34911   0.85518   0.185546  
         C         C         0.72790   0.04507   0.89386   -0.196662           
         C         C         0.95738   0.68519   0.88496   -0.198500           
         C         C         0.68572   0.73256   0.89716   -0.196510           
         C         C         0.26452   0.94750   0.92132   -0.198310           
         C         C         0.04398   0.31366   0.90162   -0.198908           
         C         C         0.76400   0.08366   0.92704   -0.073846           
         C         C         0.91903   0.68378   0.91179   -0.073243           
         C         C         0.68363   0.76906   0.92165   -0.072714           
         C         C         0.22774   0.90827   0.94272   -0.074255           
         C         C         0.08199   0.31384   0.91050   -0.073079           
         C         C         0.76417   0.12060   0.90809   -0.162471           
         C         C         0.88170   0.64727   0.88997   -0.164051           
         C         C         0.64743   0.76937   0.89111   -0.163256           
         C         C         0.22796   0.87195   0.91160   -0.163740           
         C         C         0.11947   0.34961   0.87407   -0.164844           
         C         C         0.72817   0.12017   0.85087   0.048747  
         C         C         0.88160   0.61088   0.83782   0.047142  
         C         C         0.61209   0.73301   0.83233   0.048716  
         C         C         0.26509   0.87383   0.85385   0.048460  
         C         C         0.11993   0.38635   0.82371   0.048198  
         C         C         0.69159   0.08128   0.81335   0.087519  
         C         C         0.92031   0.61201   0.80690   0.086851  
         C         C         0.61383   0.69580   0.80548   0.086279  
         C         C         0.30255   0.91344   0.82887   0.085840  
         C         C         0.08148   0.38644   0.81134   0.089359  
         N         N         0.65626   0.07866   0.75395   -0.282353           
         N         N         0.92223   0.57830   0.75223   -0.283276           
         N         N         0.58108   0.66002   0.74645   -0.283568           
         N         N         0.33881   0.91718   0.76769   -0.284555           
         N         N         0.07989   0.42050   0.75892   -0.286295           
         C         C         0.65609   0.11391   0.73244   0.099676  
         C         C         0.88653   0.54292   0.73151   0.099072  
         C         C         0.54614   0.65999   0.71599   0.099737  
         C         C         0.33895   0.88239   0.73329   0.100564  
         C         C         0.11575   0.45497   0.72208   0.098596  
         C         C         0.69021   0.15378   0.76853   -0.148410           
         C         C         0.84678   0.53824   0.76317   -0.149149           
         C         C         0.54095   0.69473   0.74155   -0.146638           
         C         C         0.30394   0.84184   0.75711   -0.146700           
         C         C         0.15533   0.45846   0.73443   -0.146773           
         C         C         0.72610   0.15681   0.82727   -0.099509           
         C         C         0.84444   0.57225   0.81465   -0.099379           
         C         C         0.57397   0.73115   0.79846   -0.100327           
         C         C         0.26710   0.83771   0.81660   -0.099715           
         C         C         0.15727   0.42407   0.78364   -0.099694           
         C         C         0.41074   0.01765   0.84128   -0.008043           
         C         C         0.97711   0.39188   0.85168   -0.005245           
         C         C         0.39603   0.41485   0.81539   -0.011293           
         C         C         0.58321   0.98154   0.81767   -0.012274           
         C         C         0.01964   0.60321   0.80847   -0.010820           
         H         H         0.41035   0.71188   0.87672   0.102133  
         H         H         0.28800   0.69687   0.87140   0.101861  
         H         H         0.69776   0.41120   0.87653   0.101299  
         H         H         0.58845   0.28896   0.88147   0.100698  
         H         H         0.71037   0.30284   0.89303   0.101599  
         H         H         0.42231   0.77094   0.72145   0.104265  
         H         H         0.23193   0.65009   0.70500   0.104232  
         H         H         0.65499   0.42432   0.72714   0.104269  
         H         H         0.57519   0.23107   0.74585   0.104270  
         H         H         0.76914   0.34877   0.73223   0.104395  
         H         H         0.45307   0.84704   0.74534   0.111030  
         H         H         0.15515   0.60531   0.72207   0.110816  
         H         H         0.61152   0.45708   0.73929   0.111207  
         H         H         0.54259   0.15478   0.76598   0.111869  
         H         H         0.84558   0.39229   0.75707   0.111828  
         H         H         0.35148   0.83002   0.53214   0.104180  
         H         H         0.16790   0.51690   0.50567   0.104217  
         H         H         0.52104   0.35381   0.52778   0.103527  
         H         H         0.64521   0.16995   0.55749   0.104485  
         H         H         0.83292   0.48184   0.52568   0.105168  
         H         H         0.32065   0.75333   0.52597   0.104527  
         H         H         0.24499   0.56220   0.50344   0.103593  
         H         H         0.56614   0.32264   0.52363   0.103300  
         H         H         0.67681   0.24677   0.54908   0.104017  
         H         H         0.75585   0.43653   0.52153   0.103525  
         H         H         0.48284   0.89971   0.91974   0.069714  
         H         H         0.10064   0.58361   0.90484   0.071270  
         H         H         0.58587   0.48624   0.91883   0.070488  
         H         H         0.51194   0.09982   0.93654   0.069570  
         H         H         0.89732   0.41388   0.95068   0.069970  
         H         H         0.57416   0.04593   0.93282   0.136006  
         H         H         0.95462   0.53097   0.92850   0.135913  
         H         H         0.53259   0.57840   0.93215   0.135501  
         H         H         0.41982   0.95297   0.93917   0.135531  
         H         H         0.04356   0.46652   0.93302   0.134020  
         H         H         0.62838   0.02132   -0.00286  0.082365  
         H         H         0.97689   0.60596   0.98945   0.080083  
         H         H         0.60654   0.63251   -0.00257  0.078258  
         H         H         0.36584   0.96971   0.01130   0.080104  
         H         H         0.02843   0.39839   0.00016   0.078859  
         H         H         0.61975   0.97238   0.50885   0.076723  
         H         H         0.02900   0.64776   0.49967   0.076471  
         H         H         0.64862   0.62245   0.53279   0.075380  
         H         H         0.37888   0.02396   0.53799   0.075733  
         H         H         0.97380   0.35513   0.55260   0.078523  
         H         H         0.72735   0.01586   0.91271   0.128858  
         H         H         0.98684   0.71359   0.90629   0.128251  
         H         H         0.71396   0.73199   0.92382   0.129390  
         H         H         0.26449   0.97608   0.94894   0.129090  
         H         H         0.01439   0.28584   0.93304   0.129371  
         H         H         0.79155   0.08390   0.97106   0.105005  
         H         H         0.91921   0.71165   0.95329   0.104520  
         H         H         0.71069   0.79678   0.96799   0.104826  
         H         H         0.19924   0.90698   0.98584   0.105128  
         H         H         0.08145   0.28556   0.94884   0.105291  
         H         H         0.79174   0.15027   0.93599   0.108557  
         H         H         0.85208   0.64585   0.91283   0.107218  
         H         H         0.64546   0.79721   0.91204   0.107865  
         H         H         0.19991   0.84164   0.92977   0.107672  
         H         H         0.14889   0.35011   0.88266   0.108236  
         H         H         0.62749   0.11079   0.68442   0.079985  
         H         H         0.88910   0.51654   0.68847   0.081570  
         H         H         0.52058   0.63101   0.66885   0.081947  
         H         H         0.36831   0.88642   0.68435   0.082274  
         H         H         0.11352   0.48167   0.68128   0.082121  
         H         H         0.68757   0.18133   0.75153   0.110388  
         H         H         0.81886   0.50795   0.74797   0.110895  
         H         H         0.51102   0.69208   0.71785   0.111574  
         H         H         0.30653   0.81465   0.72906   0.111696  
         H         H         0.18349   0.48808   0.70619   0.111935  
         H         H         0.75301   0.18689   0.85667   0.109738  
         H         H         0.81447   0.57001   0.83948   0.108877  
         H         H         0.57128   0.75861   0.81910   0.109100  
         H         H         0.23926   0.80718   0.83563   0.109232  
         H         H         0.18710   0.42535   0.79272   0.109379  
         H         H         0.41297   0.04348   0.76791   0.082017  
         H         H         0.95020   0.36649   0.79014   0.083091  
         H         H         0.37306   0.41638   0.73791   0.082921  
         H         H         0.57874   0.95730   0.73015   0.080423  
         H         H         0.04442   0.62471   0.72270   0.081767  
         H         H         0.41097   0.99465   0.75798   0.079858  
         H         H         0.99857   0.41376   0.75777   0.081033  
         H         H         0.41971   0.41401   0.73601   0.078834  
         H         H         0.58589   0.00817   0.74938   0.079121  
         H         H         0.99392   0.57919   0.73799   0.078380 

