
##########################################################################
#               Crystallographic Information Format file
#               Produced by PyCifRW module
#
#  This is a CIF file.  CIF has been adopted by the International
#  Union of Crystallography as the standard for data archiving and
#  transmission.
#
#  For information on this file format, follow the CIF links at
#  http://www.iucr.org
##########################################################################

data_image0

_cell_length_a                          20.7766
_cell_length_b                          20.7243
_cell_length_c                          33.6119
_cell_angle_alpha                       89.8731
_cell_angle_beta                        89.8384
_cell_angle_gamma                       119.908
_symmetry_space_group_name_H-M          'P 1'
_space_group_name_Hall                  'P 1'
loop_
  _atom_site_type_symbol
  _atom_site_label
  _atom_site_fract_x
  _atom_site_fract_y
  _atom_site_fract_z
  _atom_site_charge
         Si        Si        0.86752   0.66327   0.45767   0.685619  
         Si        Si        0.33361   0.20062   0.12109   0.687658  
         Si        Si        0.79520   0.13241   0.78868   0.686328  
         Si        Si        0.13230   0.33454   0.95722   0.685198  
         Si        Si        0.66749   0.79985   0.62173   0.681781  
         Si        Si        0.20237   0.86447   0.28791   0.685517  
         C         C         0.76965   0.61977   0.43850   -0.209414           
         C         C         0.37837   0.14636   0.10344   -0.210306           
         C         C         0.85034   0.23112   0.77028   -0.208635           
         C         C         0.23061   0.37858   0.93866   -0.209212           
         C         C         0.62388   0.85529   0.60418   -0.207193           
         C         C         0.14524   0.76557   0.27075   -0.209928           
         C         C         0.71425   0.54646   0.44883   -0.073576           
         C         C         0.45261   0.16794   0.11319   -0.075334           
         C         C         0.82929   0.28474   0.77929   -0.075458           
         C         C         0.28282   0.45279   0.94893   -0.075856           
         C         C         0.54910   0.83279   0.61343   -0.075435           
         C         C         0.16666   0.71226   0.27983   -0.075695           
         H         H         0.72731   0.51341   0.46903   0.101339  
         H         H         0.48528   0.21762   0.13100   0.104027  
         H         H         0.77997   0.26899   0.79738   0.101101  
         H         H         0.26547   0.48453   0.96745   0.104043  
         H         H         0.51657   0.78330   0.63165   0.103614  
         H         H         0.21663   0.72866   0.29723   0.103599  
         C         C         0.64271   0.51495   0.43359   -0.112724           
         C         C         0.48541   0.12734   0.10022   -0.112809           
         C         C         0.87008   0.35763   0.76543   -0.112502           
         C         C         0.35614   0.48653   0.93594   -0.113585           
         C         C         0.51554   0.87200   0.59940   -0.111723           
         C         C         0.12560   0.63913   0.26681   -0.113451           
         H         H         0.60007   0.45849   0.44134   0.109566  
         H         H         0.54278   0.14416   0.10729   0.110660  
         H         H         0.85360   0.39879   0.77202   0.112014  
         H         H         0.39644   0.54357   0.94389   0.111907  
         H         H         0.45763   0.85395   0.60595   0.110555  
         H         H         0.14258   0.59828   0.27320   0.110871  
         C         C         0.62380   0.55607   0.40750   0.061262  
         C         C         0.44440   0.06303   0.07712   0.061667  
         C         C         0.93423   0.37969   0.74216   0.060015  
         C         C         0.37961   0.44650   0.91198   0.062099  
         C         C         0.55642   0.93620   0.57588   0.060615  
         C         C         0.06058   0.61657   0.24457   0.061290  
         C         C         0.67798   0.62916   0.39739   -0.130791           
         C         C         0.37015   0.04005   0.06798   -0.131502           
         C         C         0.95612   0.32718   0.73335   -0.130412           
         C         C         0.32879   0.37230   0.90221   -0.129884           
         C         C         0.63131   0.96026   0.56736   -0.130052           
         C         C         0.03721   0.66824   0.23656   -0.130613           
         H         H         0.66369   0.66140   0.37732   0.106841  
         H         H         0.33836   0.99026   0.05011   0.107600  
         H         H         0.00550   0.34393   0.71519   0.106575  
         H         H         0.34752   0.34137   0.88399   0.106495  
         H         H         0.66315   0.01009   0.54929   0.106909  
         H         H         0.98643   0.65039   0.21968   0.106928  
         C         C         0.74986   0.66022   0.41247   -0.069826           
         C         C         0.33792   0.08158   0.08068   -0.071754           
         C         C         0.91451   0.25393   0.74700   -0.071030           
         C         C         0.25519   0.33897   0.91515   -0.069313           
         C         C         0.66431   0.92003   0.58108   -0.071600           
         C         C         0.07940   0.74190   0.24912   -0.069083           
         H         H         0.79129   0.71661   0.40385   0.100568  
         H         H         0.28079   0.06377   0.07261   0.102835  
         H         H         0.93190   0.21383   0.73947   0.103619  
         H         H         0.21647   0.28171   0.90683   0.101951  
         H         H         0.72197   0.93884   0.57347   0.103026  
         H         H         0.06116   0.78145   0.24182   0.101148  
         C         C         0.54953   0.52395   0.39038   0.066298  
         C         C         0.47772   0.02082   0.06128   0.066551  
         C         C         0.97758   0.45517   0.72611   0.066822  
         C         C         0.45489   0.48032   0.89595   0.065704  
         C         C         0.52277   0.97766   0.55939   0.065568  
         C         C         0.01829   0.54159   0.22834   0.065971  
         H         H         0.53786   0.56209   0.37303   0.068601  
         H         H         0.43938   0.96715   0.04736   0.068293  
         H         H         0.02990   0.46849   0.71101   0.068102  
         H         H         0.46986   0.44223   0.88121   0.067059  
         H         H         0.56107   0.03067   0.54457   0.067245  
         H         H         0.96432   0.52673   0.21504   0.067460  
         N         N         0.50082   0.45445   0.39439   -0.270977           
         N         N         0.54837   0.04608   0.06170   -0.273320           
         N         N         0.95489   0.50276   0.72800   -0.273220           
         N         N         0.50088   0.55095   0.89717   -0.272461           
         N         N         0.45221   0.95319   0.56062   -0.273275           
         N         N         0.04388   0.49624   0.22780   -0.275494           
         C         C         0.42961   0.42849   0.37885   0.203341  
         C         C         0.57476   0.00082   0.04625   0.204454  
         C         C         0.00058   0.57446   0.71261   0.203895  
         C         C         0.57231   0.57643   0.88166   0.203959  
         C         C         0.42646   -0.00100  0.54506   0.203668  
         C         C         -0.00113  0.42491   0.21223   0.203190  
         C         C         0.38857   0.46460   0.38551   -0.183622           
         C         C         0.54419   0.92561   0.05691   -0.183233           
         C         C         0.07671   0.61699   0.72110   -0.184306           
         C         C         0.61502   0.54347   0.89161   -0.184572           
         C         C         0.45959   0.07501   0.55430   -0.183130           
         C         C         0.92291   0.38152   0.22124   -0.181551           
         H         H         0.41256   0.51489   0.40342   0.111858  
         H         H         0.49892   0.90119   0.07844   0.112480  
         H         H         0.10191   0.59430   0.74089   0.112457  
         H         H         0.59267   0.49746   0.91275   0.112212  
         H         H         0.50609   0.09928   0.57484   0.111696  
         H         H         0.89779   0.40317   0.24178   0.111382  
         C         C         0.31649   0.43490   0.37072   -0.138608           
         C         C         0.57304   0.88293   0.04114   -0.138884           
         C         C         0.11958   0.68877   0.70544   -0.135593           
         C         C         0.68626   0.57075   0.87577   -0.136930           
         C         C         0.43194   0.11881   0.53853   -0.138511           
         C         C         0.88047   0.31019   0.20539   -0.138674           
         H         H         0.28522   0.46281   0.37726   0.110717  
         H         H         0.54931   0.82528   0.05046   0.110990  
         H         H         0.17793   0.72095   0.71322   0.111245  
         H         H         0.71857   0.54508   0.88469   0.110467  
         H         H         0.45739   0.17692   0.54710   0.110947  
         H         H         0.82223   0.27726   0.21357   0.111457  
         C         C         0.28407   0.36976   0.34808   0.047159  
         C         C         0.63178   0.91322   0.01374   0.048674  
         C         C         0.08831   0.71966   0.68035   0.047484  
         C         C         0.71658   0.63103   0.84926   0.046602  
         C         C         0.37187   0.08867   0.51229   0.046920  
         C         C         0.91230   0.28059   0.17980   0.050167  
         C         C         0.32609   0.33455   0.34128   -0.126319           
         C         C         0.66213   0.98879   0.00345   -0.130218           
         C         C         0.01179   0.67687   0.67259   -0.129343           
         C         C         0.67339   0.66398   0.83983   -0.128735           
         C         C         0.33886   0.01235   0.50347   -0.129965           
         C         C         0.98857   0.32444   0.17118   -0.131267           
         H         H         0.30234   0.28413   0.32351   0.091787  
         H         H         0.70791   0.01396   0.98231   0.092855  
         H         H         0.98597   0.69997   0.65362   0.090146  
         H         H         0.69591   0.71141   0.81965   0.092216  
         H         H         0.29163   0.98754   0.48347   0.091481  
         H         H         0.01459   0.30221   0.15169   0.092703  
         C         C         0.39668   0.36186   0.35695   -0.160311           
         C         C         0.63548   0.03253   0.01974   -0.160035           
         C         C         0.96807   0.60632   0.68872   -0.159472           
         C         C         0.60316   0.63844   0.85596   -0.159070           
         C         C         0.36400   0.96751   0.52000   -0.158812           
         C         C         0.03178   0.39466   0.18743   -0.157373           
         H         H         0.42760   0.33284   0.35239   0.127223  
         H         H         0.66006   0.09108   0.01184   0.127272  
         H         H         0.90880   0.57459   0.68278   0.126871  
         H         H         0.57089   0.66504   0.84864   0.127493  
         H         H         0.33664   0.90826   0.51352   0.127473  
         H         H         0.09096   0.42724   0.18110   0.127178  
         C         C         0.90963   0.60576   0.44074   -0.209712           
         C         C         0.38993   0.30011   0.10405   -0.210690           
         C         C         0.69649   0.09028   0.77121   -0.210003           
         C         C         0.09009   0.39208   0.94074   -0.209883           
         C         C         0.60965   0.70104   0.60357   -0.208354           
         C         C         0.30108   0.90477   0.26994   -0.209229           
         C         C         0.86687   0.53863   0.42011   -0.074623           
         C         C         0.45433   0.32376   0.08084   -0.075073           
         C         C         0.67163   0.13250   0.75029   -0.075062           
         C         C         0.13153   0.45772   0.91842   -0.076037           
         C         C         0.54288   0.67762   0.58280   -0.073100           
         C         C         0.32500   0.86136   0.24939   -0.074604           
         H         H         0.80785   0.51748   0.41567   0.098771  
         H         H         0.47341   0.28483   0.07384   0.100114  
         H         H         0.70893   0.19166   0.74532   0.099035  
         H         H         0.18935   0.47670   0.91119   0.099956  
         H         H         0.52208   0.71593   0.57832   0.098186  
         H         H         0.28637   0.80266   0.24418   0.098766  
         C         C         0.89908   0.49896   0.40457   -0.131385           
         C         C         0.49421   0.39652   0.06647   -0.131527           
         C         C         0.59980   0.09943   0.73510   -0.130659           
         C         C         0.09933   0.49866   0.90473   -0.130432           
         C         C         0.50267   0.60587   0.56734   -0.132342           
         C         C         0.39754   0.89249   0.23497   -0.132100           
         H         H         0.86502   0.44699   0.38879   0.106765  
         H         H         0.54436   0.41410   0.04886   0.106566  
         H         H         0.58129   0.13289   0.71903   0.106224  
         H         H         0.13227   0.54943   0.88754   0.106178  
         H         H         0.45066   0.58868   0.55181   0.106701  
         H         H         0.41500   0.85778   0.21931   0.106608  
         C         C         0.97572   0.52624   0.40820   0.058582  
         C         C         0.46946   0.44734   0.07370   0.058726  
         C         C         0.55117   0.02259   0.73945   0.058037  
         C         C         0.02385   0.47392   0.91177   0.057901  
         C         C         0.52923   0.55562   0.57078   0.059500  
         C         C         0.44806   0.96884   0.23950   0.058485  
         C         C         0.01886   0.59256   0.42952   -0.111937           
         C         C         0.40517   0.42446   0.09703   -0.116383           
         C         C         0.57513   0.97983   0.76072   -0.113947           
         C         C         0.98192   0.40850   0.93432   -0.114352           
         C         C         0.59584   0.57822   0.59162   -0.114358           
         C         C         0.42498   0.01278   0.26034   -0.114365           
         H         H         0.07801   0.61278   0.43285   0.115145  
         H         H         0.38674   0.46433   0.10302   0.118871  
         H         H         0.53697   0.92041   0.76433   0.118160  
         H         H         0.92362   0.38970   0.94009   0.117504  
         H         H         0.61610   0.53904   0.59444   0.117373  
         H         H         0.46452   0.07174   0.26424   0.117208  
         C         C         0.98614   0.63108   0.44579   -0.069592           
         C         C         0.36666   0.35228   0.11222   -0.067138           
         C         C         0.64633   0.01340   0.77659   -0.068986           
         C         C         0.01474   0.36876   0.94878   -0.069182           
         C         C         0.63445   0.64908   0.60817   -0.070505           
         C         C         0.35312   0.98102   0.27558   -0.069615           
         H         H         0.02111   0.68229   0.46210   0.093686  
         H         H         0.31721   0.33632   0.13026   0.093539  
         H         H         0.66359   0.97895   0.79281   0.094410  
         H         H         0.98072   0.31798   0.96588   0.094284  
         H         H         0.68534   0.66450   0.62452   0.094543  
         H         H         0.33685   0.01655   0.29145   0.094187  
         C         C         0.00781   0.48476   0.38981   0.070420  
         C         C         0.51166   0.52177   0.05632   0.070495  
         C         C         0.47743   0.99014   0.72175   0.069692  
         C         C         0.99155   0.51613   0.89445   0.070452  
         C         C         0.48668   0.48209   0.55255   0.069612  
         C         C         0.52227   0.00027   0.22192   0.069295  
         H         H         0.96773   0.42915   0.37849   0.068291  
         H         H         0.56662   0.53646   0.04423   0.067273  
         H         H         0.46150   0.03021   0.71061   0.068202  
         H         H         0.03167   0.57158   0.88266   0.068008  
         H         H         0.43102   0.46753   0.54184   0.068422  
         H         H         0.53783   0.95968   0.21121   0.068304  
         N         N         0.07842   0.51119   0.38613   -0.281638           
         N         N         0.48660   0.56747   0.05386   -0.284814           
         N         N         0.43326   0.91937   0.71849   -0.281538           
         N         N         0.92090   0.48991   0.89144   -0.282832           
         N         N         0.51220   0.43706   0.54832   -0.284845           
         N         N         0.56650   0.07102   0.21806   -0.282098           
         C         C         0.10370   0.46425   0.37165   0.202041  
         C         C         0.53429   0.63933   0.03898   0.202214  
         C         C         0.36138   0.89495   0.70407   0.201603  
         C         C         0.89570   0.53647   0.87613   0.202123  
         C         C         0.46532   0.36511   0.53365   0.202397  
         C         C         0.63865   0.09692   0.20340   0.200158  
         C         C         0.07563   0.39124   0.38589   -0.183489           
         C         C         0.60882   0.68180   0.05074   -0.183920           
         C         C         0.31671   0.92279   0.71886   -0.183225           
         C         C         0.92477   0.61059   0.88838   -0.183198           
         C         C         0.39036   0.32171   0.54494   -0.180338           
         C         C         0.68379   0.06838   0.21641   -0.181069           
         H         H         0.03164   0.36962   0.40818   0.111757  
         H         H         0.63106   0.65812   0.07182   0.111303  
         H         H         0.33877   0.96532   0.74181   0.111474  
         H         H         0.96911   0.63357   0.91025   0.111986  
         H         H         0.36589   0.34503   0.56483   0.111354  
         H         H         0.66185   0.02334   0.23814   0.111157  
         C         C         0.10599   0.34784   0.37326   -0.134125           
         C         C         0.65326   0.75494   0.03721   -0.133569           
         C         C         0.24372   0.89433   0.70570   -0.135627           
         C         C         0.89495   0.65362   0.87431   -0.135996           
         C         C         0.34796   0.24785   0.53253   -0.137194           
         C         C         0.75737   0.09970   0.20339   -0.136851           
         H         H         0.08402   0.29224   0.38557   0.107631  
         H         H         0.71016   0.78674   0.04762   0.107713  
         H         H         0.21028   0.91621   0.71831   0.109494  
         H         H         0.91786   0.71023   0.88506   0.107765  
         H         H         0.29069   0.21537   0.54250   0.110482  
         H         H         0.79110   0.07711   0.21463   0.110242  
         C         C         0.16444   0.37530   0.34571   0.050516  
         C         C         0.62504   0.78764   0.01132   0.052084  
         C         C         0.21337   0.83805   0.67710   0.049657  
         C         C         0.83580   0.62462   0.84743   0.051367  
         C         C         0.37840   0.21484   0.50837   0.054452  
         C         C         0.78813   0.15993   0.17686   0.050804  
         C         C         0.19003   0.44735   0.33020   -0.123345           
         C         C         0.55123   0.74362   0.99828   -0.121566           
         C         C         0.25943   0.81231   0.66135   -0.121712           
         C         C         0.80897   0.55126   0.83398   -0.124808           
         C         C         0.45231   0.25984   0.49530   -0.123955           
         C         C         0.74157   0.18607   0.16249   -0.120710           
         H         H         0.23406   0.46911   0.30792   0.113488  
         H         H         0.52884   0.76745   0.97735   0.113066  
         H         H         0.23775   0.77002   0.63826   0.111384  
         H         H         0.76440   0.52819   0.81223   0.114746  
         H         H         0.47654   0.23635   0.47534   0.113582  
         H         H         0.76363   0.23123   0.14080   0.111091  
         C         C         0.16170   0.49177   0.34344   -0.166148           
         C         C         0.50603   0.67162   0.01240   -0.165535           
         C         C         0.33136   0.83877   0.67503   -0.166393           
         C         C         0.83696   0.50732   0.84858   -0.165335           
         C         C         0.49546   0.33289   0.50818   -0.164364           
         C         C         0.66893   0.15657   0.17603   -0.163564           
         H         H         0.18339   0.54805   0.33205   0.119026  
         H         H         0.44851   0.63903   0.00297   0.119584  
         H         H         0.36577   0.81730   0.66320   0.118928  
         H         H         0.81434   0.45005   0.83884   0.119262  
         H         H         0.55304   0.36651   0.49872   0.118693  
         H         H         0.63431   0.17876   0.16555   0.118831  
         C         C         0.92441   0.76017   0.43681   -0.206015           
         C         C         0.23779   0.16005   0.09978   -0.210703           
         C         C         0.83426   0.07495   0.76782   -0.209854           
         C         C         0.07522   0.23809   0.93647   -0.208539           
         C         C         0.76438   0.84025   0.60097   -0.206622           
         C         C         0.16326   0.92216   0.26745   -0.208088           
         C         C         0.91564   0.81850   0.45254   -0.080450           
         C         C         0.17968   0.09022   0.11295   -0.080905           
         C         C         0.90003   0.08076   0.78341   -0.078302           
         C         C         0.08509   0.17911   0.95026   -0.081315           
         C         C         0.82249   0.90863   0.61539   -0.080202           
         C         C         0.09638   0.91424   0.28300   -0.079796           
         H         H         0.87491   0.80622   0.47602   0.092801  
         H         H         0.19098   0.05894   0.13524   0.094396  
         H         H         0.92786   0.11844   0.80805   0.090673  
         H         H         0.12662   0.18977   0.97290   0.093677  
         H         H         0.81041   0.93868   0.63798   0.091681  
         H         H         0.06744   0.87392   0.30668   0.092430  
         C         C         0.95734   0.89130   0.43868   -0.119668           
         C         C         0.10819   0.06011   0.09786   -0.118703           
         C         C         0.93058   0.03977   0.76785   -0.121246           
         C         C         0.04298   0.10727   0.93552   -0.118801           
         C         C         0.89496   0.93923   0.60125   -0.121783           
         C         C         0.06611   0.95623   0.26853   -0.120413           
         H         H         0.94990   0.93568   0.45102   0.113138  
         H         H         0.06352   0.00615   0.10779   0.112466  
         H         H         0.98168   0.04506   0.77975   0.111711  
         H         H         0.05091   0.06204   0.94610   0.112570  
         H         H         0.93908   0.99209   0.61249   0.112796  
         H         H         0.01415   0.94925   0.28031   0.112024  
         C         C         0.00968   0.90828   0.40790   0.057938  
         C         C         0.09229   0.09961   0.06903   0.057251  
         C         C         0.89586   0.99085   0.73583   0.057571  
         C         C         0.98889   0.09172   0.90616   0.055307  
         C         C         0.91208   0.90180   0.57176   0.058855  
         C         C         0.10247   0.00848   0.23778   0.057696  
         C         C         0.01792   0.85041   0.39163   -0.123714           
         C         C         0.14998   0.16828   0.05526   -0.123621           
         C         C         0.83046   0.98476   0.72017   -0.123893           
         C         C         0.97968   0.15026   0.89174   -0.120737           
         C         C         0.85449   0.83443   0.55688   -0.124545           
         C         C         0.16844   0.01603   0.22184   -0.122163           
         H         H         0.05894   0.86323   0.36827   0.095940  
         H         H         0.13798   0.19970   0.03352   0.094828  
         H         H         0.80188   0.94556   0.69628   0.095622  
         H         H         0.93757   0.13892   0.86941   0.095768  
         H         H         0.86746   0.80440   0.53477   0.094722  
         H         H         0.19735   0.05709   0.19855   0.095208  
         C         C         0.97607   0.77762   0.40582   -0.065529           
         C         C         0.22163   0.19795   0.07031   -0.066222           
         C         C         0.80027   0.02618   0.73582   -0.064937           
         C         C         0.02211   0.22220   0.90666   -0.065901           
         C         C         0.78199   0.80422   0.57110   -0.064635           
         C         C         0.19829   0.97352   0.23635   -0.066444           
         H         H         0.98465   0.73436   0.39295   0.102661  
         H         H         0.26491   0.25187   0.05950   0.101538  
         H         H         0.74904   0.01946   0.72332   0.102688  
         H         H         0.01279   0.26612   0.89536   0.102464  
         H         H         0.73917   0.75148   0.55911   0.101259  
         H         H         0.25000   0.98147   0.22366   0.102114  
         C         C         0.05422   0.98335   0.39156   0.078297  
         C         C         0.01759   0.07079   0.05312   0.080022  
         C         C         0.92663   0.94741   0.71817   0.080068  
         C         C         0.94311   0.01675   0.89019   0.079837  
         C         C         0.98696   0.93100   0.55550   0.079936  
         C         C         0.07342   0.05433   0.22157   0.078931  
         H         H         0.08608   0.98800   0.36444   0.069410  
         H         H         0.01216   0.10167   0.02787   0.070154  
         H         H         0.89971   0.91681   0.69081   0.070318  
         H         H         0.90704   0.01141   0.86499   0.071200  
         H         H         0.99170   0.90108   0.52964   0.070523  
         H         H         0.10332   0.08893   0.19559   0.069869  
         N         N         0.05629   0.04108   0.40750   -0.282508           
         N         N         0.96108   0.01258   0.06809   -0.283709           
         N         N         0.98208   0.94512   0.73391   -0.282360           
         N         N         0.94463   0.95992   0.90497   -0.281075           
         N         N         0.04425   0.98834   0.57023   -0.283142           
         N         N         0.01648   0.05477   0.23682   -0.284286           
         C         C         0.09392   0.10974   0.38750   0.198138  
         C         C         0.89206   0.98262   0.04927   0.199956  
         C         C         0.01493   0.90889   0.71449   0.198485  
         C         C         0.90634   0.89088   0.88589   0.200316  
         C         C         0.11285   0.01855   0.55036   0.198099  
         C         C         0.98593   0.09305   0.21728   0.198508  
         C         C         0.13249   0.17522   0.41013   -0.160937           
         C         C         0.82766   0.95351   0.07309   -0.163535           
         C         C         0.03960   0.86928   0.73810   -0.162343           
         C         C         0.86901   0.82593   0.90935   -0.164460           
         C         C         0.17816   0.04812   0.57324   -0.162064           
         C         C         0.95730   0.12974   0.24039   -0.163459           
         H         H         0.13443   0.17038   0.44229   0.122319  
         H         H         0.83389   0.95831   0.10524   0.122251  
         H         H         0.02912   0.86573   0.76999   0.120891  
         H         H         0.86823   0.83151   0.94150   0.122581  
         H         H         0.17315   0.04322   0.60548   0.122162  
         H         H         0.96323   0.13040   0.27257   0.122078  
         C         C         0.16847   0.24451   0.39157   -0.121646           
         C         C         0.75779   0.92010   0.05575   -0.126126           
         C         C         0.07502   0.83434   0.72092   -0.124755           
         C         C         0.83291   0.75630   0.89155   -0.122588           
         C         C         0.24750   0.08231   0.55494   -0.125930           
         C         C         0.92307   0.16507   0.22232   -0.125307           
         H         H         0.19994   0.29428   0.40945   0.112510  
         H         H         0.70880   0.90017   0.07460   0.114660  
         H         H         0.09106   0.80179   0.73959   0.111036  
         H         H         0.80234   0.70684   0.91000   0.114817  
         H         H         0.29720   0.10338   0.57309   0.114062  
         H         H         0.90332   0.19499   0.24060   0.114438  
         C         C         0.16473   0.25232   0.35004   0.050990  
         C         C         0.74861   0.91076   0.01420   0.052303  
         C         C         0.09066   0.83974   0.67979   0.050407  
         C         C         0.83565   0.74770   0.85006   0.051274  
         C         C         0.25546   0.09140   0.51329   0.052000  
         C         C         0.91228   0.16239   0.18079   0.051298  
         C         C         0.12618   0.18698   0.32776   -0.143411           
         C         C         0.81301   0.94043   0.99072   -0.143916           
         C         C         0.06682   0.88007   0.65656   -0.142991           
         C         C         0.87298   0.81249   0.82697   -0.143384           
         C         C         0.19031   0.06119   0.49069   -0.145066           
         C         C         0.94097   0.12594   0.15802   -0.143928           
         H         H         0.12177   0.18976   0.29565   0.100730  
         H         H         0.80919   0.93529   0.95853   0.099690  
         H         H         0.07756   0.88632   0.62473   0.099739  
         H         H         0.87644   0.80884   0.79486   0.101459  
         H         H         0.19309   0.06631   0.45846   0.100506  
         H         H         0.93396   0.12221   0.12592   0.101028  
         C         C         0.09163   0.11680   0.34598   -0.176153           
         C         C         0.88369   0.97628   0.00776   -0.177111           
         C         C         0.02918   0.91379   0.67333   -0.174965           
         C         C         0.90734   0.88309   0.84440   -0.177244           
         C         C         0.12012   0.02505   0.50872   -0.175026           
         C         C         0.97790   0.09240   0.17572   -0.176843           
         H         H         0.06076   0.06750   0.32767   0.108432  
         H         H         0.93229   0.99658   0.98856   0.106769  
         H         H         0.01329   0.94599   0.65422   0.106983  
         H         H         0.93763   0.93216   0.82562   0.108414  
         H         H         0.07105   0.00473   0.49010   0.106046  
         H         H         0.99802   0.06323   0.15706   0.109339  
         C         C         0.86755   0.67339   0.51334   -0.217898           
         C         C         0.32427   0.19166   0.17670   -0.218853           
         C         C         0.80324   0.13245   0.84438   -0.220676           
         C         C         0.13385   0.32682   0.01301   -0.217818           
         C         C         0.67579   0.80805   0.67749   -0.218831           
         C         C         0.19521   0.86485   0.34374   -0.218048           
         C         C         0.80120   0.63572   0.53566   -0.071276           
         C         C         0.36361   0.16459   0.19876   -0.070463           
         C         C         0.83070   0.19906   0.86626   -0.070033           
         C         C         0.20037   0.36696   0.03469   -0.069717           
         C         C         0.63681   0.83561   0.69960   -0.072817           
         C         C         0.16512   0.79795   0.36584   -0.073282           
         H         H         0.74883   0.60029   0.52068   0.097239  
         H         H         0.40040   0.14931   0.18362   0.096607  
         H         H         0.84676   0.25123   0.85087   0.097355  
         H         H         0.25200   0.40415   0.01928   0.096921  
         H         H         0.60052   0.85146   0.68448   0.098847  
         H         H         0.14743   0.74539   0.35072   0.099474  
         C         C         0.80088   0.64429   0.57663   -0.108818           
         C         C         0.35499   0.15513   0.23969   -0.106788           
         C         C         0.83932   0.19995   0.90726   -0.105251           
         C         C         0.20197   0.35917   0.07567   -0.106415           
         C         C         0.64475   0.84439   0.74058   -0.106855           
         C         C         0.15624   0.79740   0.40684   -0.106177           
         H         H         0.74979   0.61467   0.59374   0.103216  
         H         H         0.38510   0.13401   0.25662   0.104133  
         H         H         0.86060   0.25137   0.92399   0.104911  
         H         H         0.25324   0.39048   0.09223   0.103995  
         H         H         0.61436   0.86542   0.75735   0.103191  
         H         H         0.13305   0.74579   0.42374   0.103458  
         C         C         0.86653   0.69336   0.59678   0.060660  
         C         C         0.30501   0.17056   0.26006   0.061752  
         C         C         0.82286   0.13430   0.92786   0.059512  
         C         C         0.13733   0.30885   0.09655   0.061892  
         C         C         0.69387   0.82802   0.76107   0.060919  
         C         C         0.17525   0.86368   0.42725   0.059265  
         C         C         0.93303   0.73161   0.57486   -0.124317           
         C         C         0.26586   0.19813   0.23850   -0.125601           
         C         C         0.79444   0.06735   0.90649   -0.128653           
         C         C         0.07050   0.26901   0.07537   -0.125499           
         C         C         0.73339   0.80095   0.73934   -0.126326           
         C         C         0.20577   0.93085   0.40562   -0.126931           
         H         H         0.98446   0.76983   0.58993   0.099817  
         H         H         0.22738   0.21093   0.25385   0.100107  
         H         H         0.78036   0.01579   0.92204   0.098946  
         H         H         0.01972   0.23018   0.09102   0.098845  
         H         H         0.77148   0.78767   0.75466   0.100593  
         H         H         0.22161   0.98287   0.42098   0.099348  
         C         C         0.93355   0.72092   0.53388   -0.072610           
         C         C         0.27592   0.20905   0.19746   -0.073601           
         C         C         0.78425   0.06642   0.86544   -0.071295           
         C         C         0.06877   0.27864   0.03435   -0.073117           
         C         C         0.72383   0.79045   0.69831   -0.072142           
         C         C         0.21620   0.93135   0.36456   -0.072048           
         H         H         0.98587   0.75150   0.51772   0.096845  
         H         H         0.24437   0.22972   0.18139   0.096124  
         H         H         0.76273   0.01383   0.84967   0.096940  
         H         H         0.01629   0.24684   0.01875   0.096199  
         H         H         0.75515   0.76930   0.68237   0.096293  
         H         H         0.23996   0.98416   0.34861   0.095455  
         C         C         0.86580   0.70515   0.63963   0.076990  
         C         C         0.29391   0.15815   0.30291   0.075606  
         C         C         0.83595   0.13519   0.97056   0.076259  
         C         C         0.13908   0.29781   0.13940   0.076097  
         C         C         0.70401   0.83856   0.80407   0.078479  
         C         C         0.16366   0.86337   0.47012   0.076967  
         H         H         0.91620   0.75222   0.65216   0.069258  
         H         H         0.24679   0.16122   0.31587   0.067863  
         H         H         0.83168   0.08415   0.98318   0.067128  
         H         H         0.08878   0.25104   0.15250   0.067385  
         H         H         0.75084   0.83478   0.81669   0.066051  
         H         H         0.17166   0.91564   0.48296   0.066680  
         N         N         0.80841   0.66175   0.66109   -0.295248           
         N         N         0.33821   0.14479   0.32384   -0.295027           
         N         N         0.85130   0.19309   0.99178   -0.294870           
         N         N         0.19676   0.34138   0.16037   -0.295364           
         N         N         0.65979   0.85136   0.82555   -0.297897           
         N         N         0.14567   0.80467   0.49144   -0.294227           
         C         C         0.80936   0.66752   0.70269   0.197112  
         C         C         0.33352   0.14079   0.36548   0.193182  
         C         C         0.85708   0.19135   0.03330   0.192106  
         C         C         0.19525   0.33531   0.20201   0.194191  
         C         C         0.66538   0.85537   0.86721   0.194247  
         C         C         0.14206   0.80706   0.53307   0.191949  
         C         C         0.87396   0.69877   0.72630   -0.169372           
         C         C         0.29844   0.17064   0.38906   -0.167917           
         C         C         0.82709   0.12600   0.05669   -0.165363           
         C         C         0.12987   0.30197   0.22532   -0.168906           
         C         C         0.70179   0.82677   0.89069   -0.167635           
         C         C         0.17628   0.87257   0.55606   -0.168128           
         H         H         0.92842   0.72182   0.71249   0.104598  
         H         H         0.27126   0.19827   0.37542   0.102760  
         H         H         0.79709   0.07145   0.04294   0.105833  
         H         H         0.07569   0.27860   0.21138   0.105614  
         H         H         0.72857   0.79867   0.87707   0.104201  
         H         H         0.20795   0.92683   0.54194   0.105530  
         C         C         0.86852   0.69760   0.76758   -0.121681           
         C         C         0.30096   0.16812   0.43026   -0.118668           
         C         C         0.83244   0.13060   0.09788   -0.121237           
         C         C         0.13399   0.30157   0.26656   -0.120566           
         C         C         0.70148   0.83161   0.93191   -0.119530           
         C         C         0.17268   0.86847   0.59732   -0.119634           
         H         H         0.91915   0.71970   0.78504   0.109678  
         H         H         0.27639   0.19451   0.44777   0.107631  
         H         H         0.80630   0.07949   0.11535   0.108882  
         H         H         0.08288   0.27819   0.28389   0.109158  
         H         H         0.72758   0.80675   0.94942   0.107523  
         H         H         0.20207   0.91963   0.61437   0.109301  
         C         C         0.79934   0.66759   0.78717   0.054118  
         C         C         0.33514   0.13304   0.44988   0.054956  
         C         C         0.86919   0.19961   0.11758   0.054588  
         C         C         0.20262   0.33236   0.28641   0.054234  
         C         C         0.66762   0.86704   0.95158   0.056151  
         C         C         0.13305   0.79989   0.61755   0.055031  
         C         C         0.73545   0.63543   0.76352   -0.139922           
         C         C         0.37125   0.10479   0.42641   -0.141201           
         C         C         0.89727   0.26424   0.09424   -0.140221           
         C         C         0.26737   0.36723   0.26316   -0.138471           
         C         C         0.62996   0.89359   0.92820   -0.140258           
         C         C         0.10044   0.73498   0.59459   -0.138039           
         H         H         0.68105   0.61015   0.77750   0.110260  
         H         H         0.40025   0.07940   0.44050   0.113290  
         H         H         0.92367   0.31845   0.10838   0.112929  
         H         H         0.32132   0.39410   0.27748   0.110241  
         H         H         0.60123   0.91923   0.94233   0.110287  
         H         H         0.07129   0.68089   0.60907   0.110267  
         C         C         0.74020   0.63471   0.72213   -0.153384           
         C         C         0.37134   0.10951   0.38496   -0.152464           
         C         C         0.89077   0.26020   0.05290   -0.152615           
         C         C         0.26388   0.36935   0.22174   -0.152481           
         C         C         0.62819   0.88720   0.88684   -0.151154           
         C         C         0.10542   0.73844   0.55315   -0.151659           
         H         H         0.69012   0.60890   0.70416   0.120045  
         H         H         0.40071   0.08889   0.36688   0.119360  
         H         H         0.91133   0.31049   0.03499   0.118701  
         H         H         0.31450   0.39743   0.20401   0.119850  
         H         H         0.59797   0.90701   0.86891   0.119136  
         H         H         0.08069   0.68777   0.53556   0.118998  
         C         C         0.79701   0.66768   0.83308   0.012523  
         C         C         0.33527   0.13220   0.49571   0.012154  
         C         C         0.87043   0.20040   0.16345   0.011869  
         C         C         0.20361   0.33206   0.33231   0.013350  
         C         C         0.66866   0.86974   0.99742   0.009877  
         C         C         0.13151   0.79977   0.66343   0.013288 

