data_crystal

_audit_creation_method 'AiiDA-DDEC plugin'

_cell_length_a        23.68801
_cell_length_b        23.10164
_cell_length_c        11.04859

_cell_angle_alpha     85.93389
_cell_angle_beta     91.60409
_cell_angle_gamma     120.07312

_symmetry_space_group_name_Hall 'P 1'
_symmetry_space_group_name_H-M  'P 1'

loop_
_symmetry_equiv_pos_as_xyz
 'x,y,z'

loop_
_atom_site_label
_atom_site_type_symbol
_atom_site_fract_x
_atom_site_fract_y
_atom_site_fract_z
_atom_site_charge
H          H       0.29308   0.81962   0.34318   0.12428
H          H       0.22891   0.87562   0.36394   0.11492
H          H       0.32656   0.00685   0.04947   0.11858
H          H       0.39166   0.95070   0.02943   0.12235
H          H       0.44347   0.77570   0.22332   0.11339
H          H       0.38839   0.65226   0.24322   0.12058
H          H       0.20689   0.64031   0.14015   0.10923
H          H       0.26034   0.76344   0.12668   0.11361
H          H       0.45112   0.85499   0.37958   0.12326
H          H       0.57115   0.91514   0.40465   0.11894
H          H       0.59486   0.99314   0.03248   0.10518
H          H       0.47484   0.93055   0.00668   0.11549
H          H       0.20003   0.54286   0.06904   0.07059
H          H       0.12782   0.42864   0.01746   0.10679
H          H       0.06928   0.30624   0.07075   0.10967
H          H       0.16773   0.34054   0.41352   0.10648
H          H       0.22928   0.46326   0.35703   0.11321
H          H       0.20344   0.27673   0.19733   0.13723
H          H       0.20601   0.20967   0.28194   0.13143
H          H       0.20595   0.27466   0.35668   0.13692
H          H       0.99487   0.00063   0.31561   0.13233
H          H       0.92241   0.00339   0.28401   0.13196
H          H       0.95135   0.00958   0.43367   0.13612
H          H       0.00552   0.29688   0.32672   0.13575
H          H       0.92800   0.22222   0.32950   0.12948
H          H       0.96819   0.26135   0.19022   0.13535
H          H       0.89681   0.13478   0.49548   0.10919
H          H       0.77653   0.08305   0.49687   0.10829
H          H       0.76820   0.00993   0.14577   0.10623
H          H       0.88871   0.06137   0.14465   0.10920
H          H       0.07424   0.04325   0.48214   0.11387
H          H       0.13172   0.97880   0.47956   0.11246
H          H       0.21277   0.07223   0.12832   0.10846
H          H       0.15440   0.13629   0.12998   0.11306
H          H       0.67069   0.01777   0.40215   0.07079
H          H       0.20664   0.95343   0.38906   0.06873
H          H       0.31825   0.84043   0.87561   0.12264
H          H       0.25378   0.89621   0.89434   0.11544
H          H       0.30844   0.98369   0.52877   0.11670
H          H       0.37162   0.92512   0.50935   0.11996
H          H       0.44557   0.77183   0.70826   0.11317
H          H       0.38958   0.64860   0.73338   0.11936
H          H       0.20487   0.63805   0.67345   0.10902
H          H       0.25957   0.76169   0.65901   0.11241
H          H       0.45862   0.84204   0.87371   0.12487
H          H       0.57921   0.90577   0.88913   0.12030
H          H       0.59160   0.00714   0.54042   0.11120
H          H       0.47118   0.94140   0.52311   0.11458
H          H       0.20283   0.54139   0.57797   0.07294
H          H       0.13422   0.42906   0.51813   0.10825
H          H       0.07529   0.30586   0.56363   0.10885
H          H       0.16693   0.33374   0.91297   0.11126
H          H       0.22749   0.45728   0.86562   0.11159
H          H       0.20633   0.28079   0.71596   0.13681
H          H       0.20544   0.20478   0.75991   0.13250
H          H       0.20595   0.25632   0.87065   0.13602
H          H       0.96645   0.00633   0.93241   0.13720
H          H       0.99275   0.99740   0.79056   0.13404
H          H       0.91895  -0.00077   0.80252   0.12999
H          H       0.93091   0.22207   0.81166   0.12913
H          H       0.96143   0.24373   0.66185   0.13465
H          H       0.00712   0.29601   0.77849   0.13453
H          H       0.90029   0.13815   0.98406   0.11132
H          H       0.78010   0.08854   0.98812   0.11025
H          H       0.76636   0.00347   0.64767   0.10826
H          H       0.88688   0.05273   0.64348   0.11018
H          H       0.08652   0.05166   0.99175   0.10802
H          H       0.14819   0.99119   0.99413   0.10689
H          H       0.20251   0.05682   0.62018   0.10557
H          H       0.14226   0.11931   0.61871   0.11065
H          H       0.67172   0.01643   0.89939   0.07083
H          H       0.22175   0.96388   0.89801   0.07038
C          C       0.34756   0.88177   0.18605   0.16886
C          C       0.35565   0.77937   0.17846   0.17887
C          C       0.45484   0.88951   0.19218   0.16023
C          C       0.30080   0.86115   0.27948  -0.16350
C          C       0.26456   0.89288   0.29056  -0.16432
C          C       0.27404   0.94677   0.20821   0.18743
C          C       0.32034   0.96637   0.11442  -0.14848
C          C       0.35680   0.93490   0.10358  -0.17539
C          C       0.39157   0.74655   0.20623  -0.19516
C          C       0.36080   0.67705   0.21640  -0.14010
C          C       0.29384   0.63701   0.19278   0.18158
C          C       0.25890   0.66995   0.15756  -0.16082
C          C       0.28893   0.73954   0.15100  -0.19330
C          C       0.48285   0.88657   0.30442  -0.15274
C          C       0.55045   0.92065   0.31840  -0.17121
C          C       0.59191   0.95955   0.21998   0.20199
C          C       0.56314   0.96346   0.10875  -0.15380
C          C       0.49572   0.92888   0.09479  -0.16059
C          C       0.21709   0.52635   0.15091   0.05933
C          C       0.18284   0.45426   0.18365   0.04999
C          C       0.13686   0.40932   0.10416  -0.13384
C          C       0.10385   0.34047   0.13421  -0.14135
C          C       0.11466   0.31449   0.24574   0.08809
C          C       0.15995   0.35975   0.32571  -0.14235
C          C       0.19396   0.42831   0.29529  -0.11525
C          C       0.07812   0.24083   0.27704  -0.07342
C          C       0.11169   0.20464   0.28668   0.08881
C          C       0.07553   0.13385   0.30530  -0.07488
C          C       0.00669   0.10009   0.31788   0.08581
C          C       0.97441   0.13766   0.31241  -0.07825
C          C       0.00980   0.20814   0.29223   0.08535
C          C       0.18553   0.24285   0.27969  -0.42293
C          C       0.10986   0.09466   0.30628   0.09012
C          C       0.96700   0.02453   0.33809  -0.42485
C          C       0.90174   0.10275   0.31951   0.10643
C          C       0.97586   0.24900   0.28499  -0.42514
C          C       0.86877   0.10740   0.41868  -0.14313
C          C       0.80092   0.07829   0.41927  -0.12351
C          C       0.76403   0.04365   0.31997   0.04503
C          C       0.79687   0.03748   0.22176  -0.10993
C          C       0.86425   0.06625   0.22197  -0.14258
C          C       0.10407   0.04949   0.40385  -0.13831
C          C       0.13656   0.01317   0.40253  -0.13239
C          C       0.17573   0.02039   0.30280   0.04786
C          C       0.18179   0.06570   0.20482  -0.11120
C          C       0.14930   0.10167   0.20666  -0.13737
C          C       0.69325   0.01531   0.31833   0.08171
C          C       0.20929   0.98187   0.30310   0.06982
C          C       0.35002   0.87986   0.69202   0.16735
C          C       0.35661   0.77666   0.68867   0.18010
C          C       0.45675   0.88732   0.69727   0.16224
C          C       0.31612   0.87211   0.79989  -0.15794
C          C       0.27977   0.90376   0.80981  -0.16690
C          C       0.27679   0.94493   0.71187   0.19567
C          C       0.31109   0.95238   0.60448  -0.14893
C          C       0.34700   0.92015   0.59426  -0.17085
C          C       0.39275   0.74321   0.70411  -0.19637
C          C       0.36143   0.67376   0.71674  -0.14313
C          C       0.29329   0.63420   0.70633   0.17954
C          C       0.25765   0.66747   0.68205  -0.16703
C          C       0.28844   0.73730   0.67491  -0.19494
C          C       0.48785   0.87883   0.80135  -0.15588
C          C       0.55562   0.91512   0.81043  -0.17311
C          C       0.59411   0.96191   0.71633   0.19556
C          C       0.56234   0.97146   0.61381  -0.15810
C          C       0.49473   0.93474   0.60446  -0.16109
C          C       0.21841   0.52395   0.66074   0.05746
C          C       0.18472   0.45147   0.68914   0.04954
C          C       0.14132   0.40810   0.60479  -0.13675
C          C       0.10831   0.33888   0.63029  -0.14107
C          C       0.11691   0.31090   0.74148   0.08884
C          C       0.16035   0.35454   0.82581  -0.14363
C          C       0.19398   0.42359   0.80025  -0.11332
C          C       0.07943   0.23699   0.76947  -0.07406
C          C       0.11260   0.20046   0.78409   0.08856
C          C       0.07603   0.12990   0.80210  -0.07425
C          C       0.00725   0.09628   0.81257   0.08426
C          C       0.97508   0.13389   0.80315  -0.07812
C          C       0.01075   0.20414   0.77827   0.08334
C          C       0.18633   0.23719   0.78152  -0.42347
C          C       0.11032   0.09048   0.80536   0.09746
C          C       0.96916   0.02087   0.83479  -0.42297
C          C       0.90252   0.10009   0.81238   0.10472
C          C       0.97574   0.24361   0.75758  -0.42438
C          C       0.87115   0.10850   0.91019  -0.14200
C          C       0.80349   0.08080   0.91235  -0.12388
C          C       0.76540   0.04393   0.81603   0.04360
C          C       0.79639   0.03320   0.72049  -0.10905
C          C       0.86363   0.06087   0.71879  -0.14191
C          C       0.11179   0.05307   0.90996  -0.13886
C          C       0.14634   0.01866   0.91119  -0.12524
C          C       0.17949   0.01966   0.80665   0.04648
C          C       0.17679   0.05591   0.70086  -0.11025
C          C       0.14308   0.09065   0.70062  -0.14280
C          C       0.69495   0.01689   0.81412   0.07855
C          C       0.21617   0.98423   0.80834   0.07702
N          N       0.38540   0.84978   0.17615  -0.16841
N          N       0.24086   0.98284   0.20852  -0.30499
N          N       0.26529   0.56766   0.21467  -0.28694
N          N       0.66008   0.99054   0.22174  -0.29560
N          N       0.38756   0.84711   0.68368  -0.17178
N          N       0.24140   0.97896   0.71018  -0.30615
N          N       0.26480   0.56473   0.72811  -0.28312
N          N       0.66231   0.99522   0.71568  -0.29342

