data_crystal

_audit_creation_method 'AiiDA-DDEC plugin'

_cell_length_a        25.50965
_cell_length_b        25.67427
_cell_length_c         8.61582

_cell_angle_alpha     97.90458
_cell_angle_beta     84.77577
_cell_angle_gamma     118.60445

_symmetry_space_group_name_Hall 'P 1'
_symmetry_space_group_name_H-M  'P 1'

loop_
_symmetry_equiv_pos_as_xyz
 'x,y,z'

loop_
_atom_site_label
_atom_site_type_symbol
_atom_site_fract_x
_atom_site_fract_y
_atom_site_fract_z
_atom_site_charge
H          H       0.20506   0.48483   0.16043   0.10341
H          H       0.36370   0.65018   0.10404   0.10339
H          H       0.19193   0.64455   0.14381   0.10179
H          H       0.11270   0.44455   0.05856   0.10767
H          H       0.00529   0.38927   0.12447   0.10918
H          H       0.01335   0.54722   0.39093   0.12002
H          H       0.12234   0.60241   0.32941   0.10697
H          H       0.26657   0.45579   0.44893   0.10936
H          H       0.32299   0.40155   0.48564   0.12006
H          H       0.45208   0.55164   0.27452   0.10940
H          H       0.39537   0.60535   0.25362   0.10763
H          H       0.24210   0.72912   0.28235   0.10576
H          H       0.29411   0.83879   0.32094   0.11236
H          H       0.44054   0.84124   0.02683   0.12057
H          H       0.37603   0.73241   0.46493   0.10979
H          H       0.46354   0.48474   0.36092   0.06510
H          H       0.53822   0.46861   0.46887   0.10463
H          H       0.58338   0.40457   0.50051   0.10398
H          H       0.47333   0.27592   0.13847   0.10446
H          H       0.42485   0.33808   0.11369   0.11252
H          H       0.43748   0.19556   0.50326   0.13061
H          H       0.43111   0.16720   0.30516   0.13100
H          H       0.43814   0.23944   0.36246   0.13452
H          H       0.64480   0.15952   0.30134   0.12945
H          H       0.61250   0.15486   0.49182   0.12919
H          H       0.68441   0.21516   0.45130   0.12869
H          H       0.63144   0.39021   0.19730   0.12897
H          H       0.66513   0.41709   0.86216   0.13039
H          H       0.62955   0.38776   0.68089   0.12766
H          H       0.56126   0.11538   0.18359   0.09841
H          H       0.50017   0.00550   0.16072   0.11114
H          H       0.38542   0.02356   0.05495   0.10616
H          H       0.44864   0.13227   0.08326   0.10003
H          H       0.73442   0.38608   0.49758   0.10591
H          H       0.84366   0.43258   0.44367   0.11483
H          H       0.81769   0.28499   0.09868   0.10541
H          H       0.70942   0.23766   0.15841   0.10479
H          H       0.36851   0.92144   0.42282   0.07025
H          H       0.91411   0.37304   0.11002   0.06642
H          H       0.20060   0.48323   0.61964   0.10881
H          H       0.35966   0.65169   0.59776   0.10344
H          H       0.18760   0.64534   0.65797   0.10567
H          H       0.10222   0.45536   0.48954   0.10367
H          H       0.99561   0.40003   0.56092   0.10804
H          H       0.01758   0.53445   0.94490   0.11542
H          H       0.12624   0.59001   0.87406   0.10380
H          H       0.26212   0.45098   0.98777   0.11009
H          H       0.31871   0.39615   0.01424   0.12091
H          H       0.43918   0.54963   0.80245   0.11056
H          H       0.38345   0.60265   0.76736   0.10454
H          H       0.24399   0.72874   0.81782   0.10547
H          H       0.29600   0.83826   0.86057   0.11003
H          H       0.43017   0.84347   0.51396   0.11799
H          H       0.38726   0.73030   0.98434   0.10768
H          H       0.46407   0.48800   0.85233   0.06348
H          H       0.53667   0.47012   0.96074   0.10494
H          H       0.58133   0.40565   0.99070   0.10445
H          H       0.46569   0.27446   0.64131   0.10324
H          H       0.41824   0.33742   0.61760   0.11244
H          H       0.43373   0.19296   0.00079   0.13127
H          H       0.42795   0.16838   0.80061   0.13141
H          H       0.43425   0.23975   0.86880   0.13456
H          H       0.63979   0.15919   0.80849   0.12992
H          H       0.61027   0.15802   0.00122   0.12801
H          H       0.68186   0.21679   0.95190   0.12839
H          H       0.69607   0.38506   0.71372   0.12737
H          H       0.69732   0.38311   0.20663   0.12745
H          H       0.67293   0.41608   0.37003   0.13016
H          H       0.55789   0.11636   0.68918   0.09951
H          H       0.49652   0.00673   0.66645   0.11170
H          H       0.38750   0.02163   0.54534   0.10789
H          H       0.45020   0.13049   0.57452   0.10072
H          H       0.73097   0.38944   0.98974   0.10714
H          H       0.84075   0.43419   0.94195   0.11491
H          H       0.81497   0.28214   0.61563   0.10445
H          H       0.70617   0.23653   0.66916   0.10521
H          H       0.36532   0.92360   0.93342   0.06871
H          H       0.91050   0.36464   0.63046   0.06270
C          C       0.22573   0.53177   0.14272  -0.18420
C          C       0.28805   0.56324   0.12217   0.07808
C          C       0.31529   0.62502   0.11435  -0.18980
C          C       0.28145   0.65542   0.12565   0.07685
C          C       0.21906   0.62223   0.14125  -0.18793
C          C       0.19055   0.56068   0.15352   0.07785
C          C       0.32361   0.53180   0.12346   0.05674
C          C       0.31121   0.72115   0.13354   0.05593
C          C       0.12558   0.52800   0.18657   0.05657
C          C       0.09123   0.46728   0.13213  -0.12265
C          C       0.03029   0.43629   0.16755  -0.17189
C          C       0.00107   0.46525   0.25871   0.20228
C          C       0.03553   0.52565   0.31565  -0.14921
C          C       0.09634   0.55635   0.27959  -0.13019
C          C       0.30280   0.47259   0.05457  -0.12720
C          C       0.33438   0.44183   0.06746  -0.15150
C          C       0.38760   0.46869   0.15117   0.19616
C          C       0.41021   0.52900   0.21307  -0.17649
C          C       0.37854   0.55961   0.19952  -0.12632
C          C       0.28526   0.75342   0.22402  -0.12307
C          C       0.31506   0.81537   0.24812  -0.17363
C          C       0.37273   0.84770   0.18218   0.19804
C          C       0.39727   0.81586   0.08350  -0.15478
C          C       0.36733   0.75388   0.06080  -0.12821
C          C       0.45095   0.44542   0.27398   0.07755
C          C       0.47785   0.40755   0.28997   0.04952
C          C       0.52360   0.42608   0.39666  -0.12701
C          C       0.54936   0.39014   0.41386  -0.12806
C          C       0.53060   0.33447   0.32425   0.08699
C          C       0.48600   0.31718   0.21459  -0.13929
C          C       0.45936   0.35215   0.19868  -0.10302
C          C       0.55731   0.29529   0.34248  -0.06536
C          C       0.52081   0.23475   0.36892   0.09074
C          C       0.54775   0.19823   0.37920  -0.06687
C          C       0.61075   0.22322   0.37539   0.08733
C          C       0.64687   0.28347   0.34721  -0.06108
C          C       0.62008   0.31900   0.32550   0.09305
C          C       0.45356   0.20827   0.38488  -0.42931
C          C       0.51039   0.13227   0.37910   0.08259
C          C       0.63959   0.18624   0.40664  -0.42660
C          C       0.71305   0.30884   0.32882   0.09220
C          C       0.65746   0.38041   0.27213  -0.42802
C          C       0.52403   0.09498   0.26565  -0.12828
C          C       0.48970   0.03353   0.25058  -0.10795
C          C       0.43879   0.00589   0.34816   0.04809
C          C       0.42522   0.04217   0.46413  -0.12633
C          C       0.46055   0.10408   0.47950  -0.12955
C          C       0.75248   0.36353   0.41086  -0.12702
C          C       0.81379   0.38996   0.38100  -0.10959
C          C       0.83832   0.36279   0.26554   0.04851
C          C       0.79966   0.30704   0.18767  -0.13204
C          C       0.73846   0.28044   0.22083  -0.13499
C          C       0.40116   0.94119   0.32765   0.07274
C          C       0.90175   0.39183   0.22108   0.07145
C          C       0.22171   0.53122   0.61492  -0.18280
C          C       0.28430   0.56375   0.60245   0.07851
C          C       0.31121   0.62602   0.60508  -0.18884
C          C       0.27704   0.65623   0.62508   0.07823
C          C       0.21476   0.62269   0.64189  -0.18953
C          C       0.18660   0.56034   0.63873   0.08066
C          C       0.32046   0.53304   0.60722   0.06076
C          C       0.30673   0.72213   0.64064   0.05659
C          C       0.12195   0.52697   0.67615   0.06010
C          C       0.08415   0.47235   0.59130  -0.12483
C          C       0.02372   0.44128   0.63158  -0.16775
C          C      -0.00131   0.46364   0.75888   0.19446
C          C       0.03667   0.51793   0.84467  -0.14674
C          C       0.09706   0.54909   0.80356  -0.13300
C          C       0.30397   0.47602   0.52752  -0.12984
C          C       0.33536   0.44561   0.54703  -0.15111
C          C       0.38389   0.47039   0.64819   0.19101
C          C       0.40190   0.52857   0.72352  -0.17330
C          C       0.37067   0.55896   0.70279  -0.12765
C          C       0.28431   0.75360   0.74882  -0.12505
C          C       0.31419   0.81555   0.77464  -0.17159
C          C       0.36837   0.84864   0.69326   0.19413
C          C       0.38949   0.81748   0.58022  -0.15304
C          C       0.35939   0.75545   0.55470  -0.13182
C          C       0.44835   0.44721   0.76981   0.07455
C          C       0.47419   0.40839   0.78633   0.05244
C          C       0.52111   0.42723   0.88969  -0.12994
C          C       0.54657   0.39095   0.90606  -0.12720
C          C       0.52667   0.33460   0.81918   0.08543
C          C       0.48031   0.31663   0.71432  -0.13618
C          C       0.45389   0.35198   0.69944  -0.10560
C          C       0.55356   0.29560   0.83888  -0.06584
C          C       0.51739   0.23536   0.86869   0.08870
C          C       0.54473   0.19948   0.88267  -0.06722
C          C       0.60768   0.22453   0.87841   0.08993
C          C       0.64361   0.28452   0.84728  -0.06216
C          C       0.61648   0.31946   0.82287   0.09359
C          C       0.45004   0.20821   0.88481  -0.42929
C          C       0.50758   0.13364   0.88526   0.08640
C          C       0.63641   0.18774   0.91183  -0.42836
C          C       0.70980   0.30993   0.83029   0.09044
C          C       0.65378   0.38052   0.76723  -0.42985
C          C       0.52080   0.09614   0.77167  -0.13119
C          C       0.48629   0.03469   0.75722  -0.10733
C          C       0.43571   0.00736   0.85603   0.05058
C          C       0.42285   0.04389   0.97289  -0.12724
C          C       0.45840   0.10573   0.98753  -0.13301
C          C       0.74928   0.36555   0.90856  -0.12890
C          C       0.81071   0.39099   0.88216  -0.10960
C          C       0.83545   0.36168   0.77440   0.04961
C          C       0.79663   0.30532   0.69983  -0.13315
C          C       0.73529   0.27989   0.72873  -0.13451
C          C       0.39765   0.94275   0.83719   0.07211
C          C       0.89897   0.38846   0.73250   0.06648
N          N       0.94041   0.43805   0.30444  -0.29517
N          N       0.41374   0.43238   0.16440  -0.30399
N          N       0.40799   0.90981   0.20416  -0.30319
N          N       0.93807   0.43709   0.80739  -0.29869
N          N       0.40946   0.43368   0.66424  -0.30486
N          N       0.40369   0.91087   0.71370  -0.30517

