data_crystal

_audit_creation_method 'AiiDA-DDEC plugin'

_cell_length_a        17.96260
_cell_length_b        41.02040
_cell_length_c        42.05376

_cell_angle_alpha     118.80638
_cell_angle_beta     89.67601
_cell_angle_gamma     90.37927

_symmetry_space_group_name_Hall 'P 1'
_symmetry_space_group_name_H-M  'P 1'

loop_
_symmetry_equiv_pos_as_xyz
 'x,y,z'

loop_
_atom_site_label
_atom_site_type_symbol
_atom_site_fract_x
_atom_site_fract_y
_atom_site_fract_z
_atom_site_charge
H          H       0.03357   0.02612   0.57513   0.11373
H          H       0.04288   0.97701   0.42597   0.11193
H          H       0.11728   0.07073   0.62266   0.11400
H          H       0.12810   0.93315   0.37875   0.11275
H          H       0.24624   0.08144   0.54174   0.11840
H          H       0.24062   0.91442   0.45843   0.11908
H          H       0.16323   0.03540   0.49348   0.11415
H          H       0.15610   0.95978   0.50652   0.11465
H          H       0.97721   0.07700   0.53706   0.11441
H          H       0.97738   0.92210   0.45891   0.11354
H          H       0.89392   0.11947   0.58627   0.11368
H          H       0.89351   0.88127   0.40928   0.11311
H          H       0.77869   0.02554   0.58275   0.11810
H          H       0.77820   0.97708   0.41869   0.11842
H          H       0.86005   0.98263   0.53140   0.11495
H          H       0.86085   0.01829   0.47004   0.11398
H          H       0.11821   0.54640   0.50642   0.11382
H          H       0.12006   0.45725   0.49770   0.11419
H          H       0.20652   0.54156   0.45847   0.11968
H          H       0.20395   0.46328   0.54724   0.11822
H          H       0.09640   0.44150   0.38076   0.11102
H          H       0.08439   0.56055   0.62322   0.11228
H          H       0.00723   0.44684   0.42817   0.11322
H          H      -0.00088   0.55360   0.57451   0.11356
H          H       0.81017   0.45742   0.47215   0.11343
H          H       0.80831   0.54004   0.52596   0.11362
H          H       0.73189   0.44992   0.42122   0.11152
H          H       0.72605   0.54545   0.57524   0.11143
H          H       0.87437   0.52537   0.40510   0.12080
H          H       0.86395   0.46873   0.59032   0.12233
H          H       0.95337   0.53300   0.45650   0.11410
H          H       0.94722   0.46325   0.54042   0.11367
H          H       0.65445   0.46280   0.94393   0.11335
H          H       0.65292   0.53841   0.05394   0.11246
H          H       0.66168   0.40191   0.88724   0.12317
H          H       0.65994   0.60021   0.10974   0.12080
H          H       0.48010   0.36047   0.92470   0.11354
H          H       0.46806   0.63634   0.07474   0.11471
H          H       0.47614   0.42047   0.98233   0.11211
H          H       0.46470   0.57571   0.01778   0.11262
H          H       0.46105   0.47403   0.94026   0.10744
H          H       0.45704   0.51925   0.05591   0.10952
H          H       0.44975   0.47836   0.88421   0.11015
H          H       0.44274   0.51399   0.11128   0.10984
H          H       0.61499   0.56529   0.92326   0.11893
H          H       0.62451   0.43652   0.07767   0.11674
H          H       0.62436   0.56193   0.98082   0.11210
H          H       0.63636   0.44045   0.02043   0.11354
H          H       0.39942   0.75419   0.25735   0.12420
H          H       0.39260   0.24101   0.74811   0.12292
H          H       0.62507   0.76800   0.29084   0.12866
H          H       0.61574   0.23253   0.70216   0.12949
H          H       0.39002   0.81955   0.25219   0.12735
H          H       0.39673   0.17318   0.74628   0.12836
H          H       0.39884   0.69580   0.19861   0.11027
H          H       0.39497   0.29863   0.80729   0.10955
H          H       0.61588   0.72204   0.17345   0.11982
H          H       0.62541   0.28077   0.82069   0.11966
H          H       0.61552   0.78169   0.23166   0.12548
H          H       0.62291   0.22175   0.76210   0.12327
H          H       0.27660   0.85377   0.28501   0.10944
H          H       0.28589   0.13579   0.71332   0.11015
H          H       0.54418   0.87615   0.31530   0.12733
H          H       0.54746   0.12483   0.68566   0.12738
H          H       0.65785   0.90542   0.35244   0.11664
H          H       0.65957   0.09636   0.64669   0.11642
H          H       0.73830   0.79715   0.32727   0.11063
H          H       0.72631   0.20404   0.66278   0.10856
H          H       0.45501   0.65350   0.14157   0.06635
H          H       0.45773   0.34288   0.86144   0.06514
H          H       0.80933   0.85239   0.36903   0.06638
H          H       0.79521   0.14846   0.61921   0.06760
H          H       0.20717   0.89043   0.34228   0.06763
H          H       0.21722   0.09862   0.65545   0.06864
H          H       0.36806   0.50431   0.74152   0.12249
H          H       0.38866   0.50929   0.26687   0.12490
H          H       0.58568   0.49500   0.70479   0.13038
H          H       0.59146   0.50723   0.29820   0.12993
H          H       0.34114   0.57883   0.75450   0.12887
H          H       0.33597   0.43705   0.24893   0.12758
H          H       0.37173   0.49329   0.79438   0.10883
H          H       0.39687   0.52099   0.21442   0.10851
H          H       0.57979   0.55225   0.82790   0.11673
H          H       0.57365   0.44131   0.16873   0.11529
H          H       0.57589   0.56433   0.77516   0.12387
H          H       0.56630   0.42962   0.22173   0.12423
H          H       0.22586   0.57523   0.72025   0.10961
H          H       0.22082   0.44258   0.28409   0.11004
H          H       0.33017   0.49553   0.62098   0.11557
H          H       0.34323   0.49995   0.38375   0.11569
H          H       0.44609   0.49935   0.65514   0.12702
H          H       0.45897   0.49469   0.34873   0.12533
H          H       0.49804   0.59244   0.70503   0.12866
H          H       0.50122   0.40728   0.29275   0.12956
H          H       0.60329   0.59162   0.66578   0.11074
H          H       0.60797   0.40472   0.32907   0.10940
H          H       0.68869   0.49280   0.66342   0.12015
H          H       0.69616   0.50597   0.33672   0.12046
H          H       0.42680   0.50216   0.84966   0.06416
H          H       0.45185   0.51055   0.15837   0.06328
H          H       0.71030   0.56429   0.63107   0.06450
H          H       0.71696   0.43072   0.36395   0.06632
H          H       0.15736   0.55166   0.66252   0.06909
H          H       0.15613   0.46203   0.34343   0.06986
H          H       0.35854   0.13686   0.61636   0.11542
H          H       0.36427   0.86526   0.38476   0.11574
H          H       0.47079   0.17415   0.64929   0.12737
H          H       0.47860   0.83087   0.35196   0.12780
C          C       0.09234   0.02723   0.53067   0.06493
C          C       0.09281   0.97147   0.46971   0.06766
C          C       0.92475   0.02676   0.53058   0.06891
C          C       0.92520   0.97323   0.46824   0.06594
C          C       0.08036   0.03794   0.56758  -0.12579
C          C       0.08584   0.96320   0.43321  -0.12690
C          C       0.12777   0.06320   0.59444  -0.17708
C          C       0.13391   0.93825   0.40652  -0.17411
C          C       0.18908   0.07876   0.58523   0.20095
C          C       0.19063   0.92037   0.41544   0.19935
C          C       0.19952   0.06887   0.54846  -0.15307
C          C       0.19658   0.92824   0.45186  -0.15411
C          C       0.15302   0.04329   0.52178  -0.13433
C          C       0.14929   0.95345   0.47843  -0.13442
C          C       0.93329   0.06566   0.54683  -0.12942
C          C       0.93364   0.93427   0.45025  -0.12725
C          C       0.88615   0.08957   0.57473  -0.17476
C          C       0.88633   0.91126   0.42203  -0.17600
C          C       0.82885   0.07525   0.58769   0.20037
C          C       0.82885   0.92647   0.41049   0.19992
C          C       0.82211   0.03629   0.57214  -0.15232
C          C       0.82208   0.96548   0.42787  -0.15205
C          C       0.86796   0.01260   0.54377  -0.13599
C          C       0.86834   0.98828   0.45639  -0.13514
C          C       0.05577   0.49715   0.47061   0.06239
C          C       0.05265   0.50467   0.53249   0.06929
C          C       0.88871   0.49521   0.46792   0.06111
C          C       0.88532   0.50221   0.53027   0.06275
C          C       0.11257   0.52385   0.47872  -0.13478
C          C       0.11112   0.47930   0.52536  -0.13647
C          C       0.16190   0.52136   0.45220  -0.16041
C          C       0.15830   0.48258   0.55274  -0.15348
C          C       0.15685   0.49194   0.41630   0.20154
C          C       0.15019   0.51178   0.58858   0.19892
C          C       0.09995   0.46515   0.40796  -0.18010
C          C       0.09136   0.53719   0.59604  -0.17531
C          C       0.05033   0.46786   0.43475  -0.12779
C          C       0.04346   0.53350   0.56845  -0.12914
C          C       0.82549   0.47177   0.45703  -0.12923
C          C       0.82178   0.52510   0.54065  -0.13017
C          C       0.78167   0.46721   0.42802  -0.18567
C          C       0.77582   0.52844   0.56871  -0.18518
C          C       0.79928   0.48618   0.40849   0.20306
C          C       0.79169   0.50889   0.58777   0.20309
C          C       0.86173   0.51006   0.41959  -0.16355
C          C       0.85347   0.48489   0.57655  -0.16283
C          C       0.90569   0.51432   0.44850  -0.12578
C          C       0.89970   0.48186   0.54858  -0.12765
C          C       0.56289   0.44642   0.96666   0.05805
C          C       0.55682   0.55221   0.03237   0.05736
C          C       0.55520   0.48271   0.00005  -0.04078
C          C       0.55209   0.51569   0.99892  -0.03428
C          C       0.54406   0.51748   0.96476   0.06153
C          C       0.54872   0.48087   0.03429   0.06670
C          C       0.61626   0.44040   0.93973  -0.12666
C          C       0.61243   0.55986   0.05857  -0.12429
C          C       0.62027   0.40652   0.90793  -0.16980
C          C       0.61636   0.59423   0.08981  -0.17014
C          C       0.56898   0.37779   0.90133   0.20881
C          C       0.56239   0.62170   0.09687   0.20808
C          C       0.51748   0.38313   0.92880  -0.19316
C          C       0.50778   0.61465   0.07036  -0.19364
C          C       0.51551   0.41667   0.96108  -0.12997
C          C       0.50624   0.58070   0.03839  -0.13084
C          C       0.49456   0.49433   0.93687  -0.12110
C          C       0.49430   0.50130   0.06071  -0.12321
C          C       0.48800   0.49692   0.90522  -0.18017
C          C       0.48672   0.49841   0.09216  -0.17977
C          C       0.53129   0.52287   0.89999   0.20378
C          C       0.53439   0.47517   0.09895   0.20282
C          C       0.58112   0.54575   0.92768  -0.16261
C          C       0.58836   0.45457   0.07245  -0.15624
C          C       0.58635   0.54361   0.95955  -0.13348
C          C       0.59489   0.45702   0.04069  -0.13598
C          C       0.50789   0.77170   0.24878   0.17694
C          C       0.50791   0.22747   0.75067   0.18133
C          C       0.44646   0.74728   0.23888  -0.19482
C          C       0.44329   0.24930   0.76412  -0.20016
C          C       0.63255   0.79802   0.30400  -0.18412
C          C       0.62581   0.20281   0.69028  -0.18150
C          C       0.57686   0.82024   0.30094   0.16791
C          C       0.57468   0.18042   0.69647   0.16924
C          C       0.44188   0.82299   0.29994   0.16808
C          C       0.44100   0.17584   0.69978   0.16912
C          C       0.38411   0.82920   0.28111  -0.18419
C          C       0.38806   0.16542   0.71794  -0.18295
C          C       0.44659   0.71451   0.20590  -0.12086
C          C       0.44498   0.28174   0.79738  -0.11905
C          C       0.50807   0.70454   0.18218   0.03275
C          C       0.51072   0.29397   0.81799   0.02923
C          C       0.56904   0.72934   0.19214  -0.09546
C          C       0.57476   0.27166   0.80459  -0.09362
C          C       0.56882   0.76247   0.22460  -0.19091
C          C       0.57337   0.23888   0.77188  -0.19534
C          C       0.32049   0.84848   0.29971  -0.12593
C          C       0.32590   0.14446   0.69927  -0.12768
C          C       0.31304   0.86212   0.33738   0.04064
C          C       0.31500   0.13374   0.66240   0.04390
C          C       0.43397   0.83581   0.33747  -0.17907
C          C       0.42972   0.16578   0.66308  -0.17819
C          C       0.58702   0.85911   0.31809  -0.17959
C          C       0.58755   0.14193   0.68079  -0.17782
C          C       0.64999   0.87540   0.33864  -0.09394
C          C       0.64944   0.12610   0.65909  -0.09424
C          C       0.70562   0.85351   0.34263   0.04266
C          C       0.70066   0.14807   0.65203   0.04341
C          C       0.69619   0.81459   0.32448  -0.12636
C          C       0.68782   0.18664   0.66816  -0.12470
C          C       0.50801   0.66901   0.14876   0.06483
C          C       0.51192   0.32917   0.85160   0.06580
C          C       0.76907   0.87116   0.36659   0.06364
C          C       0.76298   0.13052   0.62705   0.06418
C          C       0.24901   0.88439   0.35775   0.06207
C          C       0.25244   0.11018   0.64177   0.06267
C          C       0.47151   0.53516   0.75479   0.18391
C          C       0.47657   0.46845   0.24766   0.17957
C          C       0.41402   0.51508   0.76058  -0.19834
C          C       0.42878   0.49425   0.24530  -0.19298
C          C       0.59017   0.51604   0.69617  -0.17830
C          C       0.59574   0.48487   0.30502  -0.17554
C          C       0.53491   0.54358   0.70687   0.17511
C          C       0.53916   0.45770   0.29379   0.17472
C          C       0.40115   0.53972   0.70685   0.17553
C          C       0.40540   0.46503   0.29647   0.17937
C          C       0.33848   0.56066   0.72530  -0.18246
C          C       0.33750   0.45082   0.27841  -0.19004
C          C       0.41649   0.50894   0.79030  -0.12146
C          C       0.43374   0.50072   0.21577  -0.12374
C          C       0.47616   0.52217   0.81498   0.03351
C          C       0.48587   0.48176   0.18770   0.03821
C          C       0.53400   0.54183   0.80865  -0.09188
C          C       0.53373   0.45610   0.19050  -0.09275
C          C       0.53179   0.54846   0.77933  -0.19403
C          C       0.52953   0.44962   0.21991  -0.18812
C          C       0.27398   0.55844   0.70598  -0.12775
C          C       0.27298   0.45404   0.29834  -0.12432
C          C       0.27064   0.53544   0.66808   0.04327
C          C       0.27452   0.47132   0.33650   0.03523
C          C       0.33352   0.51385   0.65012  -0.09364
C          C       0.34276   0.48599   0.35424  -0.09238
C          C       0.39766   0.51597   0.66909  -0.17926
C          C       0.40687   0.48304   0.33472  -0.18560
C          C       0.54077   0.57117   0.69633  -0.17882
C          C       0.54473   0.42840   0.30194  -0.17714
C          C       0.59930   0.57039   0.67422  -0.12189
C          C       0.60420   0.42727   0.32245  -0.12195
C          C       0.65231   0.54166   0.66148   0.04462
C          C       0.65847   0.45567   0.33590   0.04560
C          C       0.64755   0.51492   0.67336  -0.09881
C          C       0.65404   0.48412   0.32626  -0.09870
C          C       0.47625   0.51632   0.84646   0.06161
C          C       0.48908   0.48860   0.15678   0.06105
C          C       0.70703   0.53956   0.63486   0.06594
C          C       0.71406   0.45610   0.36128   0.06599
C          C       0.20492   0.53430   0.64717   0.06133
C          C       0.20844   0.47406   0.35804   0.06393
C          C       0.36784   0.14516   0.64478  -0.09326
C          C       0.37079   0.85496   0.35575  -0.09276
C          C       0.04677  -0.00058   0.50007  -0.03289
C          C       0.97068  -0.00033   0.49962  -0.03285
C          C       0.00801   0.50044   0.50098  -0.03507
C          C       0.93174   0.49944   0.49977  -0.03499
N          N       0.56724   0.65544   0.12927  -0.29168
N          N       0.57310   0.34462   0.86840  -0.29754
N          N       0.77409   0.90707   0.38446  -0.30245
N          N       0.77525   0.09534   0.61423  -0.30106
N          N       0.24547   0.89651   0.39238  -0.29932
N          N       0.24325   0.10293   0.60851  -0.29884
N          N       0.53073   0.52799   0.86942  -0.30540
N          N       0.53262   0.46964   0.12937  -0.30721
N          N       0.74689   0.51029   0.61584  -0.29672
N          N       0.75507   0.48496   0.38058  -0.29402
N          N       0.20605   0.51355   0.61231  -0.29628
N          N       0.21383   0.49029   0.39299  -0.29303
N          N       0.46911   0.54218   0.72521  -0.14759
N          N       0.47275   0.46134   0.27730  -0.14670
N          N       0.50895   0.80484   0.28228  -0.11752
N          N       0.50788   0.19504   0.71677  -0.12167

