data_crystal

_audit_creation_method 'AiiDA-DDEC plugin'

_cell_length_a        21.03636
_cell_length_b        46.01869
_cell_length_c        45.17168

_cell_angle_alpha     118.54006
_cell_angle_beta     89.15681
_cell_angle_gamma     90.75760

_symmetry_space_group_name_Hall 'P 1'
_symmetry_space_group_name_H-M  'P 1'

loop_
_symmetry_equiv_pos_as_xyz
 'x,y,z'

loop_
_atom_site_label
_atom_site_type_symbol
_atom_site_fract_x
_atom_site_fract_y
_atom_site_fract_z
_atom_site_charge
H          H       0.05148   0.56592   0.55181   0.11476
H          H       0.06757   0.43903   0.44402   0.11351
H          H       0.12604   0.61078   0.55787   0.11434
H          H       0.14607   0.39631   0.43665   0.11259
H          H       0.21678   0.54421   0.46406   0.12095
H          H       0.20216   0.45466   0.54003   0.11818
H          H       0.14560   0.49859   0.45948   0.11213
H          H       0.12590   0.49852   0.54674   0.11384
H          H       0.00051   0.54485   0.47436   0.11370
H          H       0.98964   0.46173   0.53198   0.11201
H          H       0.92696   0.59030   0.48448   0.11437
H          H       0.91430   0.41688   0.52368   0.11323
H          H       0.81390   0.56703   0.55054   0.11907
H          H       0.82612   0.42553   0.44298   0.11757
H          H       0.88534   0.51978   0.53843   0.11334
H          H       0.89993   0.47225   0.45274   0.11497
H          H       0.97805   0.45119   0.92898   0.12919
H          H       0.97862   0.54811   0.07054   0.13099
H          H       0.06285   0.41301   0.89375   0.11722
H          H       0.06503   0.58513   0.10567   0.11820
H          H       0.12941   0.41342   0.94334   0.07458
H          H       0.13510   0.58402   0.05563   0.07371
H          H       0.20204   0.46920   0.97131   0.12268
H          H       0.20369   0.52712   0.02793   0.12298
H          H       0.93583   0.43368   0.97888   0.10927
H          H       0.94610   0.56855   0.02546   0.10743
H          H       0.86470   0.38942   0.93778   0.11630
H          H       0.87729   0.61260   0.06849   0.11519
H          H       0.76255   0.46208   0.92388   0.11049
H          H       0.75397   0.53803   0.06987   0.10959
H          H       0.83278   0.50604   0.96460   0.11373
H          H       0.82221   0.49466   0.02796   0.11174
H          H       0.61000   0.95238   0.48620   0.11519
H          H       0.60715   0.04888   0.51106   0.11393
H          H       0.61835   0.90107   0.49165   0.12343
H          H       0.60956   0.10097   0.50698   0.12131
H          H       0.45772   0.93213   0.55960   0.11079
H          H       0.44365   0.06852   0.44443   0.11076
H          H       0.45096   0.98330   0.55508   0.11248
H          H       0.44248   0.01645   0.44766   0.11230
H          H       0.44702   0.94399   0.47179   0.11046
H          H       0.43536   0.04954   0.52968   0.11023
H          H       0.44222   0.89085   0.41950   0.11447
H          H       0.42616   0.10299   0.58104   0.11231
H          H       0.57569   0.92769   0.37213   0.11946
H          H       0.58514   0.07841   0.62356   0.11802
H          H       0.57979   0.98174   0.42485   0.11214
H          H       0.59253   0.02335   0.57180   0.11365
H          H       0.61561   0.25951   0.46961   0.11644
H          H       0.62455   0.73992   0.52886   0.11671
H          H       0.52036   0.34199   0.47060   0.11451
H          H       0.52580   0.66056   0.53517   0.11901
H          H       0.41302   0.25585   0.45566   0.11154
H          H       0.42156   0.74434   0.54480   0.11772
H          H       0.44728   0.19975   0.41774   0.11212
H          H       0.45423   0.79941   0.58106   0.11328
H          H       0.66630   0.31405   0.51774   0.11286
H          H       0.66920   0.68164   0.48027   0.11318
H          H       0.35580   0.27550   0.42124   0.11180
H          H       0.41373   0.69787   0.59477   0.11597
H          H       0.44433   0.14420   0.41400   0.10570
H          H       0.45278   0.85510   0.58523   0.10716
H          H       0.57208   0.17797   0.49758   0.11423
H          H       0.58798   0.82356   0.50368   0.11681
H          H       0.57601   0.23371   0.50100   0.11263
H          H       0.58983   0.76748   0.49943   0.11260
H          H       0.25794   0.30567   0.42256   0.10799
H          H       0.31890   0.66477   0.59444   0.10798
H          H       0.33354   0.39460   0.50410   0.11421
H          H       0.29343   0.63213   0.48898   0.11603
H          H       0.43154   0.36442   0.50337   0.11522
H          H       0.38814   0.66575   0.48935   0.11776
H          H       0.61852   0.33323   0.43640   0.11475
H          H       0.62862   0.67324   0.56949   0.11366
H          H       0.71721   0.36749   0.44710   0.11412
H          H       0.72533   0.63833   0.55839   0.11421
H          H       0.76390   0.34845   0.52846   0.10754
H          H       0.76431   0.64620   0.46883   0.10776
H          H       0.48052   0.10530   0.43156   0.06662
H          H       0.48909   0.89413   0.56833   0.06528
H          H       0.83000   0.38683   0.51799   0.06710
H          H       0.82671   0.60803   0.48001   0.06857
H          H       0.19618   0.35755   0.44530   0.06904
H          H       0.23869   0.62360   0.56462   0.06866
H          H       0.57213   0.72620   0.23037   0.11723
H          H       0.57229   0.27502   0.76600   0.11899
H          H       0.47626   0.63990   0.15581   0.11210
H          H       0.47819   0.35687   0.84761   0.11751
H          H       0.36767   0.72512   0.22293   0.10955
H          H       0.36754   0.27688   0.77256   0.11324
H          H       0.37495   0.75421   0.27770   0.11179
H          H       0.38558   0.25175   0.71394   0.11320
H          H       0.55968   0.62187   0.18400   0.11137
H          H       0.60178   0.35766   0.79190   0.11500
H          H       0.31418   0.70503   0.16986   0.11581
H          H       0.31017   0.29272   0.82661   0.11639
H          H       0.37132   0.80836   0.32916   0.10848
H          H       0.38628   0.19878   0.66060   0.10736
H          H       0.55472   0.83356   0.30455   0.11619
H          H       0.55044   0.16753   0.69316   0.11608
H          H       0.55734   0.77988   0.25170   0.11219
H          H       0.54964   0.22061   0.74706   0.11312
H          H       0.22562   0.67326   0.13240   0.10792
H          H       0.21938   0.32323   0.86329   0.10835
H          H       0.29606   0.58358   0.12716   0.12070
H          H       0.29815   0.41500   0.87546   0.11966
H          H       0.38565   0.61546   0.16445   0.11521
H          H       0.39023   0.38443   0.83916   0.11600
H          H       0.63632   0.70061   0.16833   0.11249
H          H       0.59701   0.31495   0.85824   0.11633
H          H       0.72645   0.66421   0.13498   0.11707
H          H       0.68981   0.35054   0.88979   0.11665
H          H       0.65045   0.58611   0.15187   0.10734
H          H       0.69308   0.39349   0.82369   0.10792
H          H       0.41680   0.86172   0.36629   0.06681
H          H       0.43219   0.14669   0.62348   0.06507
H          H       0.73995   0.57517   0.11804   0.06157
H          H       0.75785   0.41768   0.87328   0.06457
H          H       0.17994   0.62396   0.09366   0.05637
H          H       0.17442   0.37289   0.90482   0.05853
C          C       0.09352   0.52903   0.50534   0.06428
C          C       0.09111   0.47162   0.49589   0.07307
C          C       0.94822   0.52887   0.50551   0.06394
C          C       0.94964   0.47040   0.49324   0.07071
C          C       0.08844   0.56098   0.53293  -0.12888
C          C       0.09644   0.44221   0.46517  -0.13251
C          C       0.13038   0.58616   0.53636  -0.18404
C          C       0.14013   0.41800   0.46121  -0.17532
C          C       0.17774   0.58014   0.51173   0.20477
C          C       0.17896   0.42234   0.48826   0.19884
C          C       0.18100   0.54852   0.48334  -0.16188
C          C       0.17191   0.45144   0.51934  -0.15110
C          C       0.14098   0.52328   0.48084  -0.13407
C          C       0.12924   0.47566   0.52297  -0.14013
C          C       0.95917   0.54936   0.49069  -0.12692
C          C       0.95372   0.45385   0.51250  -0.12883
C          C       0.91764   0.57497   0.49643  -0.18039
C          C       0.91114   0.42852   0.50771  -0.17538
C          C       0.86407   0.58126   0.51777   0.20316
C          C       0.86360   0.41858   0.48295   0.19911
C          C       0.85461   0.56159   0.53364  -0.15761
C          C       0.86214   0.43393   0.46242  -0.14903
C          C       0.89481   0.53549   0.52695  -0.13312
C          C       0.90351   0.45969   0.46783  -0.13692
C          C       0.03885   0.47767   0.97277   0.08227
C          C       0.03951   0.52168   0.02635   0.07867
C          C       0.89139   0.47316   0.97388   0.07482
C          C       0.89146   0.52801   0.02456   0.07443
C          C       0.02542   0.45294   0.93898  -0.14441
C          C       0.02646   0.54607   0.06039  -0.14266
C          C       0.07201   0.43187   0.91955  -0.08838
C          C       0.07397   0.56635   0.07977  -0.09004
C          C       0.13640   0.43155   0.93358   0.12732
C          C       0.13938   0.56589   0.06547   0.12810
C          C       0.15250   0.46389   0.96398  -0.15410
C          C       0.15412   0.53332   0.03505  -0.15683
C          C       0.10417   0.48410   0.98307  -0.01138
C          C       0.10483   0.51409   0.01591  -0.01107
C          C       0.89915   0.43979   0.96605  -0.14374
C          C       0.90521   0.56187   0.03603  -0.14739
C          C       0.85942   0.41499   0.94329  -0.17019
C          C       0.86678   0.58660   0.05993  -0.16799
C          C       0.81087   0.42234   0.92676   0.19482
C          C       0.81306   0.57877   0.07389   0.19426
C          C       0.80191   0.45570   0.93498  -0.18580
C          C       0.79720   0.54499   0.06124  -0.18466
C          C       0.84108   0.48037   0.95808  -0.13530
C          C       0.83537   0.52050   0.03733  -0.13474
C          C       0.52959   0.97136   0.52002   0.06684
C          C       0.52416   0.02898   0.47995   0.06624
C          C       0.52155   0.00086   0.51537  -0.03755
C          C       0.51986   0.99874   0.48389  -0.03669
C          C       0.51423   0.96693   0.45244   0.05907
C          C       0.51554   0.03284   0.54658   0.06620
C          C       0.57746   0.94807   0.50266  -0.13002
C          C       0.57181   0.05303   0.49616  -0.12743
C          C       0.58213   0.91941   0.50551  -0.15341
C          C       0.57333   0.08217   0.49402  -0.15464
C          C       0.53944   0.91287   0.52600   0.20014
C          C       0.52773   0.08844   0.47524   0.20158
C          C       0.49234   0.93663   0.54410  -0.17841
C          C       0.48058   0.06409   0.45840  -0.18041
C          C       0.48816   0.96544   0.54144  -0.13243
C          C       0.47956   0.03482   0.46041  -0.13245
C          C       0.47486   0.94078   0.44997  -0.11857
C          C       0.46837   0.05586   0.55020  -0.12251
C          C       0.47184   0.91082   0.42039  -0.18081
C          C       0.46364   0.08615   0.57921  -0.17426
C          C       0.50812   0.90571   0.39176   0.20448
C          C       0.50671   0.09500   0.60593   0.20067
C          C       0.54736   0.93175   0.39408  -0.16183
C          C       0.55267   0.07163   0.60271  -0.15241
C          C       0.54941   0.96187   0.42357  -0.13272
C          C       0.55657   0.04102   0.57382  -0.13681
C          C       0.57197   0.27128   0.46829  -0.19234
C          C       0.58035   0.72886   0.53165  -0.19539
C          C       0.57483   0.30288   0.47093   0.07407
C          C       0.58210   0.69823   0.53126   0.07571
C          C       0.51845   0.31726   0.46804  -0.19296
C          C       0.52524   0.68467   0.53621  -0.19507
C          C       0.45972   0.30068   0.46246   0.07307
C          C       0.46719   0.70090   0.54065   0.07637
C          C       0.45833   0.26867   0.45894  -0.18910
C          C       0.46657   0.73176   0.54163  -0.19980
C          C       0.51403   0.25387   0.46210   0.07191
C          C       0.52306   0.74626   0.53758   0.07392
C          C       0.51179   0.22069   0.45964   0.07225
C          C       0.52212   0.77941   0.53994   0.07219
C          C       0.47431   0.19510   0.43538  -0.14126
C          C       0.48322   0.80450   0.56390  -0.14135
C          C       0.67783   0.32524   0.50186  -0.14318
C          C       0.68179   0.67253   0.49764  -0.14283
C          C       0.63549   0.32132   0.47640   0.07134
C          C       0.64203   0.67967   0.52555   0.07181
C          C       0.40078   0.31775   0.46224   0.07115
C          C       0.40738   0.68388   0.54205   0.07767
C          C       0.35083   0.30147   0.43977  -0.14254
C          C       0.38702   0.68379   0.57171  -0.14732
C          C       0.47294   0.16387   0.43324  -0.13261
C          C       0.48276   0.83585   0.56638  -0.13346
C          C       0.50812   0.15738   0.45568   0.05125
C          C       0.52046   0.84305   0.54467   0.05193
C          C       0.54539   0.18308   0.48015  -0.10386
C          C       0.55935   0.81792   0.52056  -0.10641
C          C       0.54749   0.21398   0.48184  -0.13931
C          C       0.56032   0.78682   0.51844  -0.13995
C          C       0.29593   0.31850   0.44037  -0.13462
C          C       0.33376   0.66524   0.57147  -0.13065
C          C       0.28937   0.35231   0.46353   0.05032
C          C       0.30014   0.64615   0.54155   0.04756
C          C       0.33932   0.36854   0.48614  -0.10488
C          C       0.31951   0.64711   0.51206  -0.10544
C          C       0.39378   0.35164   0.48545  -0.13950
C          C       0.37218   0.66580   0.51239  -0.14275
C          C       0.65058   0.33656   0.45650  -0.14057
C          C       0.65868   0.66732   0.54754  -0.14068
C          C       0.70540   0.35544   0.46215  -0.10584
C          C       0.71237   0.64804   0.54159  -0.10473
C          C       0.74703   0.36017   0.48828   0.05158
C          C       0.75089   0.63976   0.51288   0.05030
C          C       0.73262   0.34466   0.50791  -0.13474
C          C       0.73512   0.65255   0.49120  -0.13284
C          C       0.50561   0.12466   0.45347   0.06574
C          C       0.51749   0.87578   0.54709   0.06605
C          C       0.80239   0.38202   0.49557   0.06564
C          C       0.80341   0.61651   0.50474   0.06626
C          C       0.23285   0.37088   0.46430   0.06527
C          C       0.24948   0.62369   0.54074   0.06935
C          C       0.52816   0.71385   0.21818  -0.18973
C          C       0.52858   0.28706   0.77902  -0.19338
C          C       0.53081   0.68137   0.19163   0.07903
C          C       0.53171   0.31755   0.80835   0.07864
C          C       0.47392   0.66474   0.17709  -0.18981
C          C       0.47526   0.33336   0.82452  -0.19303
C          C       0.41486   0.68032   0.18771   0.06957
C          C       0.41559   0.31903   0.81196   0.06881
C          C       0.41326   0.71281   0.21447  -0.19146
C          C       0.41344   0.28831   0.78249  -0.19425
C          C       0.46935   0.72965   0.23055   0.07171
C          C       0.46951   0.27209   0.76571   0.07462
C          C       0.46658   0.76264   0.26078   0.07011
C          C       0.46778   0.24011   0.73431   0.06873
C          C       0.41406   0.77164   0.28301  -0.13949
C          C       0.42128   0.23325   0.70973  -0.14216
C          C       0.59631   0.63108   0.17331  -0.14369
C          C       0.62138   0.35598   0.81318  -0.14715
C          C       0.59072   0.66321   0.17743   0.06385
C          C       0.59282   0.33446   0.82340   0.07094
C          C       0.35724   0.66240   0.16920   0.07815
C          C       0.35754   0.33642   0.83077   0.07819
C          C       0.31009   0.67855   0.16089  -0.13859
C          C       0.30750   0.31943   0.83697  -0.14075
C          C       0.41231   0.80206   0.31227  -0.13308
C          C       0.42194   0.20354   0.67964  -0.13234
C          C       0.46346   0.82454   0.32063   0.05228
C          C       0.46863   0.17956   0.67329   0.05128
C          C       0.51581   0.81585   0.29826  -0.10664
C          C       0.51476   0.18622   0.69808  -0.10476
C          C       0.51704   0.78569   0.26892  -0.13881
C          C       0.51425   0.21589   0.72792  -0.14031
C          C       0.26033   0.66061   0.13976  -0.13181
C          C       0.25652   0.33671   0.85778  -0.13138
C          C       0.25494   0.62615   0.12690   0.05010
C          C       0.25277   0.37136   0.87233   0.04828
C          C       0.30024   0.61015   0.13663  -0.10530
C          C       0.30113   0.38826   0.86470  -0.10451
C          C       0.35044   0.62802   0.15729  -0.14040
C          C       0.35268   0.37107   0.84455  -0.14077
C          C       0.63975   0.67561   0.16489  -0.14020
C          C       0.61886   0.33190   0.85056  -0.14673
C          C       0.69011   0.65552   0.14637  -0.11095
C          C       0.67023   0.35158   0.86817  -0.10729
C          C       0.69357   0.62266   0.14062   0.05474
C          C       0.69669   0.37459   0.85919   0.04989
C          C       0.64727   0.61122   0.15551  -0.13609
C          C       0.67251   0.37600   0.83103  -0.13474
C          C       0.46157   0.85602   0.35174   0.06606
C          C       0.46823   0.14855   0.64172   0.06526
C          C       0.74015   0.59912   0.11813   0.05169
C          C       0.74555   0.39807   0.87976   0.05701
C          C       0.20456   0.60857   0.10255   0.06334
C          C       0.20102   0.38848   0.89634   0.06407
C          C       0.99612   0.50015  -0.00047  -0.06139
C          C       0.92971   0.50063  -0.00066  -0.11620
C          C       0.98808   0.50017   0.49971  -0.03699
C          C       0.05279   0.50047   0.50043  -0.03382
N          N       0.53199   0.11921   0.47602  -0.29387
N          N       0.54599   0.88227   0.52532  -0.29734
N          N       0.81504   0.39533   0.47661  -0.29904
N          N       0.81795   0.60545   0.52520  -0.29194
N          N       0.22825   0.40162   0.48673  -0.29064
N          N       0.22260   0.60336   0.51283  -0.28738
N          N       0.50960   0.87618   0.36126  -0.29113
N          N       0.50764   0.12506   0.63610  -0.30010
N          N       0.77687   0.60476   0.09812  -0.29943
N          N       0.77126   0.39665   0.90489  -0.29347
N          N       0.18981   0.57779   0.09091  -0.28913
N          N       0.18773   0.41932   0.90817  -0.28889

