data_crystal

_audit_creation_method 'AiiDA-DDEC plugin'

_cell_length_a        29.38569
_cell_length_b        30.33377
_cell_length_c         7.95005

_cell_angle_alpha     128.33497
_cell_angle_beta     79.38362
_cell_angle_gamma     120.74831

_symmetry_space_group_name_Hall 'P 1'
_symmetry_space_group_name_H-M  'P 1'

loop_
_symmetry_equiv_pos_as_xyz
 'x,y,z'

loop_
_atom_site_label
_atom_site_type_symbol
_atom_site_fract_x
_atom_site_fract_y
_atom_site_fract_z
_atom_site_charge
H          H       0.95518   0.55337   0.05466   0.11288
H          H       0.97083   0.40444   0.95713   0.12760
H          H       0.85985   0.49480   0.04115   0.12675
H          H       0.78354   0.44004   0.01089   0.07622
H          H       0.64488   0.20713   0.95889   0.08069
H          H       0.62868   0.14311   0.00115   0.13728
H          H       0.59284   0.04632   0.97223   0.11954
H          H       0.43769   0.03353   0.05890   0.12117
H          H       0.51624   0.35964   0.87368   0.13867
H          H       0.45951   0.38675   0.80935   0.11815
H          H       0.58428   0.59256   0.23556   0.12166
H          H       0.55672   0.36171   0.08984   0.08505
H          H       0.54031   0.61448   0.18500   0.11848
H          H       0.48302   0.64124   0.12239   0.13942
H          H       0.41967   0.40757   0.73051   0.12063
H          H       0.44340   0.63945   0.90140   0.08451
H          H       0.21770   0.56229   0.99265   0.07728
H          H       0.14223   0.50949   0.97387   0.12658
H          H       0.04683   0.45020   0.95928   0.11359
H          H       0.03090   0.60043   0.06922   0.12685
H          H       0.37259   0.85930   0.00243   0.13571
H          H       0.40849   0.95563   0.02801   0.12006
H          H       0.56463   0.97061   0.95727   0.12204
H          H       0.35759   0.79875   0.06213   0.08011
H          H       0.95409   0.55244   0.57719   0.11384
H          H       0.96860   0.39883   0.44712   0.12559
H          H       0.85878   0.49365   0.56273   0.12814
H          H       0.78276   0.43680   0.51083   0.07628
H          H       0.64130   0.20476   0.46000   0.07880
H          H       0.62585   0.14365   0.51472   0.13570
H          H       0.59032   0.04718   0.48729   0.11953
H          H       0.43351   0.03022   0.55147   0.12127
H          H       0.51682   0.35872   0.36790   0.14014
H          H       0.45983   0.38499   0.30010   0.11805
H          H       0.58242   0.59157   0.73849   0.12198
H          H       0.55612   0.36116   0.58898   0.08436
H          H       0.53927   0.61281   0.67971   0.11830
H          H       0.48166   0.63932   0.61754   0.13919
H          H       0.41819   0.40592   0.22997   0.12166
H          H       0.44146   0.63746   0.39890   0.08414
H          H       0.21608   0.55966   0.48857   0.07614
H          H       0.14115   0.50753   0.47769   0.13032
H          H       0.04588   0.44760   0.46419   0.11390
H          H       0.02807   0.59572   0.56575   0.12856
H          H       0.36971   0.85747   0.50518   0.13740
H          H       0.40519   0.95409   0.53321   0.12080
H          H       0.56124   0.96876   0.45569   0.12101
H          H       0.35532   0.79716   0.56544   0.07958
C          C       0.31694   0.61284  -0.00102   0.33775
C          C       0.39693   0.69466   0.95349   0.34391
C          C       0.31395   0.70665   0.07770   0.33395
C          C       0.68429   0.39020   0.00762   0.33443
C          C       0.60378   0.30809   0.05098   0.34509
C          C       0.68754   0.29736   0.93647   0.33461
C          C       0.40170   0.61051   0.90703   0.12503
C          C       0.38458   0.77925   0.00746   0.09913
C          C       0.23071   0.60748   0.01944   0.10494
C          C       0.59869   0.39085   0.08734   0.12215
C          C       0.61689   0.22502   0.00655   0.09660
C          C       0.77078   0.39619   0.99258   0.10482
C          C       0.41852   0.54081   0.89032   0.16688
C          C       0.44753   0.85921   0.97227   0.17134
C          C       0.14373   0.58971   0.02609   0.16659
C          C       0.58229   0.45974   0.09600   0.16503
C          C       0.55407   0.14443   0.03916   0.16911
C          C       0.85806   0.41504   0.99394   0.16752
C          C       0.47026   0.59021   0.03480  -0.14417
C          C       0.41510   0.88501  -0.00038  -0.13837
C          C       0.11790   0.52942   0.99411  -0.14112
C          C       0.52997   0.41061   0.95581  -0.14100
C          C       0.58640   0.11801   0.00756  -0.13786
C          C       0.88403   0.47494   0.02325  -0.14175
C          C       0.50182   0.57475   0.07148  -0.11458
C          C       0.43545   0.93910   0.01089  -0.11921
C          C       0.06366   0.49576   0.98548  -0.12063
C          C       0.49884   0.42615   0.91699  -0.11528
C          C       0.56617   0.06375   0.99510  -0.11791
C          C       0.93830   0.50831   0.03185  -0.12026
C          C       0.48470   0.50845   0.96840   0.08569
C          C       0.49011   0.97275  -0.00271   0.09417
C          C       0.02939   0.51948   0.01278   0.08476
C          C       0.51701   0.49216   0.01259   0.09050
C          C       0.51182   0.03051   0.01219   0.09120
C          C       0.97248   0.48476   0.00746   0.08752
C          C       0.43418   0.45894   0.81946  -0.20638
C          C       0.52271   0.94762   0.96968  -0.20489
C          C       0.05434   0.57935   0.04614  -0.21388
C          C       0.56833   0.54142   0.15593  -0.21062
C          C       0.47935   0.05614   0.04352  -0.20307
C          C       0.94748   0.42535   0.97742  -0.21425
C          C       0.40228   0.47405   0.78109   0.08884
C          C       0.50242   0.89290   0.95615   0.09813
C          C       0.10871   0.61286   0.05092   0.08981
C          C       0.59966   0.52630   0.19749   0.09195
C          C       0.49943   0.11096   0.05805   0.10140
C          C       0.89304   0.39215   0.97270   0.09051
C          C       0.37077   0.63824   0.95337  -0.14343
C          C       0.36608   0.72624   0.00597  -0.15529
C          C       0.28573   0.64246   0.02984  -0.11894
C          C       0.63003   0.36418   0.04899  -0.14400
C          C       0.63488   0.27727   0.00453  -0.15815
C          C       0.71574   0.36139   0.98271  -0.11580
C          C       0.31514   0.61101   0.49924   0.33419
C          C       0.39506   0.69311   0.45488   0.34562
C          C       0.31210   0.70525   0.58132   0.33540
C          C       0.68354   0.38859   0.50938   0.33530
C          C       0.60190   0.30706   0.55233   0.34234
C          C       0.68505   0.29493   0.43811   0.33161
C          C       0.39985   0.60855   0.40543   0.12539
C          C       0.38232   0.77763   0.50970   0.09833
C          C       0.22884   0.60519   0.51841   0.10371
C          C       0.59818   0.39030   0.58716   0.12189
C          C       0.61363   0.22310   0.50813   0.09719
C          C       0.76932   0.39286   0.49314   0.10471
C          C       0.41710   0.53887   0.38687   0.16381
C          C       0.44471   0.85744   0.47291   0.16372
C          C       0.14163   0.58667   0.52588   0.16738
C          C       0.58196   0.45908   0.59466   0.16214
C          C       0.55053   0.14286   0.54135   0.16995
C          C       0.85622   0.41107   0.49628   0.16552
C          C       0.46895   0.58833   0.53040  -0.14398
C          C       0.41214   0.88329   0.50188  -0.13739
C          C       0.11637   0.52672   0.49590  -0.14560
C          C       0.52996   0.40964   0.45172  -0.14072
C          C       0.58329   0.11762   0.51626  -0.13880
C          C       0.88259   0.47246   0.53558  -0.14257
C          C       0.50069   0.57302   0.56686  -0.11507
C          C       0.43224   0.93744   0.51380  -0.11793
C          C       0.06220   0.49269   0.48777  -0.12062
C          C       0.49866   0.42475   0.41146  -0.11510
C          C       0.56313   0.06336   0.50375  -0.11712
C          C       0.93685   0.50588   0.54428  -0.12071
C          C       0.48366   0.50684   0.46487   0.08869
C          C       0.48678   0.97117   0.49921   0.08903
C          C       0.02751   0.51585   0.51434   0.08691
C          C       0.51616   0.49079   0.50948   0.08737
C          C       0.50838   0.02906   0.51491   0.09145
C          C       0.97070   0.48105   0.51049   0.08343
C          C       0.43300   0.45726   0.31684  -0.20937
C          C       0.51945   0.94590   0.46959  -0.20213
C          C       0.05189   0.57533   0.54538  -0.21687
C          C       0.56710   0.54035   0.65557  -0.20827
C          C       0.47554   0.05381   0.54142  -0.20047
C          C       0.94544   0.42057   0.47343  -0.20989
C          C       0.40105   0.47221   0.27788   0.08948
C          C       0.49941   0.89111   0.45533   0.10350
C          C       0.10615   0.60912   0.54942   0.08973
C          C       0.59877   0.52558   0.69718   0.09174
C          C       0.49561   0.10864   0.55591   0.10154
C          C       0.89096   0.38728   0.46865   0.09030
C          C       0.36891   0.63642   0.45334  -0.14537
C          C       0.36420   0.72487   0.50889  -0.15347
C          C       0.28390   0.64071   0.53095  -0.11766
C          C       0.62900   0.36315   0.54984  -0.13922
C          C       0.63243   0.27573   0.50696  -0.15559
C          C       0.71420   0.35895   0.48436  -0.11395
N          N       0.38469   0.55395   0.86222  -0.20272
N          N       0.43119   0.80551   0.95446  -0.23602
N          N       0.19631   0.62576   0.03395  -0.23792
N          N       0.61587   0.44683   0.12741  -0.20366
N          N       0.56990   0.19790   0.05651  -0.23766
N          N       0.80544   0.37907   0.98574  -0.23826
N          N       0.38301   0.55199   0.36021  -0.20163
N          N       0.42868   0.80378   0.45487  -0.23393
N          N       0.19408   0.62312   0.53370  -0.23721
N          N       0.61557   0.44640   0.62749  -0.20385
N          N       0.56638   0.19599   0.55624  -0.23509
N          N       0.80336   0.37488   0.48546  -0.23837
Cl         Cl      0.34239   0.41170   0.59278  -0.03216
Cl         Cl      0.54507   0.86706   0.93359  -0.02351
Cl         Cl      0.13609   0.68547   0.09464  -0.02220
Cl         Cl      0.66055   0.58848   0.37933  -0.03298
Cl         Cl      0.45683   0.13740   0.08624  -0.02122
Cl         Cl      0.86528   0.32001   0.93258  -0.02270
Cl         Cl      0.34120   0.40966   0.08936  -0.03419
Cl         Cl      0.54217   0.86511   0.42989  -0.02434
Cl         Cl      0.13283   0.68117   0.59002  -0.02265
Cl         Cl      0.65921   0.58829   0.88184  -0.03281
Cl         Cl      0.45255   0.13386   0.57706  -0.02698
Cl         Cl      0.86301   0.31408   0.42152  -0.02412
O          O       0.29762   0.56918   0.01915  -0.38211
O          O       0.44255   0.71309   0.90667  -0.40782
O          O       0.29600   0.74436   0.18049  -0.39081
O          O       0.70370   0.43354   0.98579  -0.37898
O          O       0.55766   0.28904   0.09301  -0.40641
O          O       0.70594   0.26015   0.83781  -0.39012
O          O       0.29576   0.56726   0.51898  -0.38128
O          O       0.44071   0.71180   0.40881  -0.40646
O          O       0.29412   0.74286   0.68511  -0.39096
O          O       0.70381   0.43225   0.48871  -0.38062
O          O       0.55573   0.28863   0.59466  -0.40896
O          O       0.70237   0.25659   0.33665  -0.39090

