data_crystal

_audit_creation_method 'AiiDA-DDEC plugin'

_cell_length_a        21.80082
_cell_length_b        22.33621
_cell_length_c         8.03206

_cell_angle_alpha     107.17040
_cell_angle_beta     67.14080
_cell_angle_gamma     117.87685

_symmetry_space_group_name_Hall 'P 1'
_symmetry_space_group_name_H-M  'P 1'

loop_
_symmetry_equiv_pos_as_xyz
 'x,y,z'

loop_
_atom_site_label
_atom_site_type_symbol
_atom_site_fract_x
_atom_site_fract_y
_atom_site_fract_z
_atom_site_charge
H          H       0.93237   0.56957   0.19839   0.16531
H          H       0.65880   0.16639   0.22506   0.08936
H          H       0.61865   0.07597   0.30918   0.14969
H          H       0.52748   0.33037   0.15745   0.10162
H          H       0.47209   0.65886   0.35285   0.10858
H          H       0.54539   0.60213   0.10190   0.14976
H          H       0.45944   0.38471   0.34032   0.14978
H          H       0.07881   0.47452   0.30381   0.14906
H          H       0.19625   0.52893   0.16303   0.10817
H          H       0.33258   0.82851   0.32105   0.08636
H          H       0.37181   0.92202   0.23828   0.14856
H          H       0.93011   0.56933   0.69932   0.16601
H          H       0.63452   0.17365   0.86594   0.08422
H          H       0.62439   0.07221   0.77500   0.15162
H          H       0.52990   0.32626   0.63431   0.10655
H          H       0.46468   0.65477   0.87166   0.10441
H          H       0.54167   0.60133   0.62132   0.15069
H          H       0.45606   0.37925   0.83547   0.15055
H          H       0.07845   0.47486   0.79742   0.15043
H          H       0.19295   0.52684   0.65558   0.10721
H          H       0.35096   0.82102   0.71719   0.08113
H          H       0.37053   0.91904   0.75665   0.14944
C          C       0.31220   0.59763   0.25083   0.33580
C          C       0.40644   0.71937   0.31412   0.34305
C          C       0.28259   0.70110   0.29783   0.33513
C          C       0.69721   0.39804   0.21653   0.36933
C          C       0.58867   0.28016   0.24944   0.34000
C          C       0.71009   0.29444   0.26817   0.36453
C          C       0.38117   0.64416   0.28723  -0.19649
C          C       0.35737   0.74690   0.30868  -0.12764
C          C       0.26516   0.62787   0.25193  -0.17402
C          C       0.62315   0.35166   0.20958  -0.18844
C          C       0.63656   0.25075   0.25064  -0.13957
C          C       0.73640   0.36710   0.25460  -0.24747
C          C       0.42356   0.61944   0.31504   0.10003
C          C       0.37638   0.81599   0.31627   0.10772
C          C       0.20204   0.58246   0.20391   0.10923
C          C       0.58025   0.37128   0.16637   0.09904
C          C       0.61587   0.18103   0.23473   0.11901
C          C       0.80300   0.40905   0.27312   0.33639
C          C       0.45342   0.52530   0.26397   0.18916
C          C       0.46589   0.92751   0.28947   0.19881
C          C       0.08316   0.56105   0.21998   0.15968
C          C       0.55137   0.46040   0.17341   0.18802
C          C       0.52559   0.07029   0.25256   0.19658
C          C       0.93228   0.48365   0.27018   0.18128
C          C       0.42964   0.46048   0.32503   0.09210
C          C       0.53838   0.97459   0.30394   0.08976
C          C       0.03934   0.58695   0.19027   0.08474
C          C       0.57461   0.52431   0.10821   0.08951
C          C       0.45339   0.02317   0.23596   0.09017
C          C       0.97438   0.45639   0.29869   0.05260
C          C       0.52736   0.55447   0.15115  -0.24387
C          C       0.42580   0.95539   0.25139  -0.23103
C          C       0.04741   0.49498   0.27772  -0.22130
C          C       0.47740   0.43136   0.28616  -0.24443
C          C       0.56510   0.04261   0.29343  -0.23536
C          C       0.96538   0.54949   0.21864  -0.23973
C          C       0.30808   0.59415   0.75287   0.33840
C          C       0.39928   0.71538   0.83485   0.34216
C          C       0.28336   0.69900   0.78038   0.33612
C          C       0.69599   0.39542   0.71488   0.37266
C          C       0.59532   0.27303   0.69839   0.33984
C          C       0.70511   0.29397   0.79108   0.35801
C          C       0.37554   0.64026   0.79851  -0.19703
C          C       0.35773   0.74340   0.79554  -0.12942
C          C       0.26342   0.62527   0.74275  -0.17156
C          C       0.62420   0.34770   0.69369  -0.19498
C          C       0.63432   0.24868   0.75904  -0.15975
C          C       0.73388   0.36530   0.76158  -0.24846
C          C       0.41741   0.61526   0.82831   0.09955
C          C       0.38562   0.81006   0.76234   0.11163
C          C       0.20036   0.58074   0.69400   0.10774
C          C       0.58055   0.36812   0.65566   0.09743
C          C       0.60417   0.18286   0.80178   0.12216
C          C       0.80099   0.40743   0.77687   0.33673
C          C       0.44924   0.52207   0.77453   0.18559
C          C       0.47044   0.92311   0.77212   0.19544
C          C       0.08205   0.56089   0.71339   0.16034
C          C       0.54864   0.45803   0.68026   0.18640
C          C       0.52320   0.06813   0.76888   0.19303
C          C       0.93088   0.48317   0.76765   0.18414
C          C       0.42581   0.45602   0.82869   0.09029
C          C       0.54387   0.97063   0.77892   0.09521
C          C       0.03742   0.58695   0.68810   0.08524
C          C       0.57156   0.52312   0.62164   0.09238
C          C       0.45035   0.02056   0.75811   0.08960
C          C       0.97357   0.45620   0.79490   0.05134
C          C       0.52380   0.55297   0.66695  -0.24582
C          C       0.42545   0.95232   0.76292  -0.23540
C          C       0.04662   0.49500   0.77214  -0.22341
C          C       0.47412   0.42721   0.78766  -0.24013
C          C       0.56909   0.03882   0.77208  -0.24046
C          C       0.96345   0.54922   0.71774  -0.24122
N          N       0.40694   0.55388   0.31359  -0.16942
N          N       0.44305   0.86363   0.31567  -0.21246
N          N       0.15359   0.60147   0.20071  -0.19212
N          N       0.59917   0.43369   0.13199  -0.19707
N          N       0.54956   0.13448   0.22683  -0.21482
N          N       0.86010   0.44697   0.29695  -0.11698
N          N       0.40194   0.54964   0.82190  -0.16465
N          N       0.45097   0.85756   0.77642  -0.20952
N          N       0.15278   0.60097   0.68981  -0.19755
N          N       0.59709   0.43188   0.63669  -0.19549
N          N       0.54190   0.13411   0.77376  -0.20283
N          N       0.85884   0.44616   0.79420  -0.11494
Cl         Cl      0.34126   0.42316   0.45287   0.01461
Cl         Cl      0.59102   0.94200   0.33040  -0.00525
Cl         Cl      0.08021   0.66610   0.12327   0.02572
Cl         Cl      0.66291   0.56097   0.97855   0.01373
Cl         Cl      0.40186   0.05587   0.20459  -0.00638
Cl         Cl      0.93262   0.37526   0.35866  -0.01258
Cl         Cl      0.33672   0.41565   0.94883   0.00820
Cl         Cl      0.59856   0.93906   0.79924  -0.00972
Cl         Cl      0.07729   0.66662   0.62533   0.02767
Cl         Cl      0.65992   0.56115   0.49343   0.00919
Cl         Cl      0.39628   0.05252   0.73576  -0.00873
Cl         Cl      0.93226   0.37561   0.85792  -0.00955
O          O       0.29197   0.53413   0.22951  -0.39151
O          O       0.46471   0.75654   0.35000  -0.39178
O          O       0.23867   0.72534   0.31625  -0.37594
O          O       0.72713   0.45863   0.18938  -0.41237
O          O       0.52222   0.24701   0.27661  -0.37795
O          O       0.74689   0.27219   0.29887  -0.44594
O          O       0.28594   0.53067   0.73684  -0.40229
O          O       0.45199   0.75285   0.89477  -0.38362
O          O       0.24226   0.72533   0.79203  -0.37073
O          O       0.72607   0.45602   0.68778  -0.41947
O          O       0.53845   0.23334   0.65756  -0.37550
O          O       0.73954   0.27395   0.83927  -0.44666

