data_crystal

_audit_creation_method 'AiiDA-DDEC plugin'

_cell_length_a        25.07407
_cell_length_b        25.11588
_cell_length_c         7.98305

_cell_angle_alpha     121.20922
_cell_angle_beta     84.39249
_cell_angle_gamma     120.09683

_symmetry_space_group_name_Hall 'P 1'
_symmetry_space_group_name_H-M  'P 1'

loop_
_symmetry_equiv_pos_as_xyz
 'x,y,z'

loop_
_atom_site_label
_atom_site_type_symbol
_atom_site_fract_x
_atom_site_fract_y
_atom_site_fract_z
_atom_site_charge
H          H       0.30533   0.50566   0.72669   0.11514
H          H       0.48701   0.78800   0.71248   0.11306
H          H       0.20258   0.69207   0.73753   0.11456
H          H       0.69517   0.49374   0.26913   0.11486
H          H       0.51284   0.21265   0.29365   0.11196
H          H       0.79870   0.31107   0.27382   0.11535
H          H       0.35922   0.44515   0.73341   0.11937
H          H       0.55163   0.90334   0.71220   0.11921
H          H       0.08761   0.64209   0.74244   0.11196
H          H       0.64209   0.55566   0.26595   0.11955
H          H       0.44800   0.09611   0.28690   0.11893
H          H       0.91467   0.36499   0.27928   0.11032
H          H       0.53612   0.61804   0.75675   0.11475
H          H       0.38648   0.91620   0.71851   0.11195
H          H       0.08010   0.47645   0.79552   0.11123
H          H       0.46539   0.38632   0.25414   0.11345
H          H       0.61014   0.07580   0.24194   0.11305
H          H       0.91960   0.52801   0.21879   0.11087
H          H       0.48161   0.67656   0.74759   0.11613
H          H       0.32357   0.80266   0.72125   0.11684
H          H       0.19339   0.52599   0.78757   0.11549
H          H       0.51864   0.32627   0.26122   0.11540
H          H       0.67355   0.19090   0.24812   0.11661
H          H       0.80530   0.47454   0.21500   0.11441
H          H       0.64715   0.47153   0.78560   0.12533
H          H       0.53413   0.18078   0.76514   0.12884
H          H       0.81952   0.35621   0.75328   0.12717
H          H       0.35325   0.52775   0.21492   0.12594
H          H       0.46469   0.81626   0.22307   0.12890
H          H       0.18183   0.64693   0.25803   0.12622
H          H       0.49781   0.27052   0.71817   0.11461
H          H       0.72328   0.22634   0.74470   0.11251
H          H       0.77129   0.49725   0.74935   0.11458
H          H       0.50084   0.72990   0.28460   0.11635
H          H       0.27384   0.76572   0.21932   0.11129
H          H       0.22695   0.50237   0.25346   0.11525
H          H       0.41695   0.29948   0.69692   0.12730
H          H       0.69316   0.11205   0.73047   0.12878
H          H       0.88292   0.57920   0.74843   0.12994
H          H       0.58315   0.70354   0.31122   0.12743
H          H       0.30288   0.87874   0.22820   0.12898
H          H       0.11491   0.42278   0.26036   0.12905
C          C       0.35887   0.63090   0.73509   0.37437
C          C       0.36437   0.72305   0.72814   0.36940
C          C       0.27166   0.63854   0.74356   0.37267
C          C       0.64068   0.36885   0.26387   0.37495
C          C       0.63459   0.27533   0.26448   0.37304
C          C       0.72773   0.36096   0.25474   0.37277
C          C       0.39020   0.59458   0.73627   0.00516
C          C       0.40178   0.78940   0.72134   0.00695
C          C       0.20484   0.61125   0.75786   0.00507
C          C       0.61004   0.40605   0.26453   0.00445
C          C       0.59683   0.20802   0.26678   0.00426
C          C       0.79510   0.39020   0.24735   0.00659
C          C       0.35568   0.52909   0.73182  -0.10177
C          C       0.46606   0.81720   0.71523  -0.10305
C          C       0.17488   0.64476   0.74939  -0.09817
C          C       0.64502   0.47116   0.26689  -0.09995
C          C       0.53318   0.18162   0.28067  -0.10063
C          C       0.82595   0.35853   0.26214  -0.09767
C          C       0.38555   0.49576   0.73644  -0.10666
C          C       0.50169   0.88069   0.71401  -0.11376
C          C       0.11119   0.61722   0.75292  -0.10554
C          C       0.61569   0.50520   0.26356  -0.10816
C          C       0.49731   0.11726   0.27766  -0.11067
C          C       0.89009   0.38825   0.26476  -0.10355
C          C       0.45106   0.52717   0.74507   0.03721
C          C       0.47378   0.91804   0.71884   0.04238
C          C       0.07552   0.55505   0.76483   0.04135
C          C       0.55042   0.47484   0.25745   0.03657
C          C       0.52409   0.07735   0.26041   0.03968
C          C       0.92513   0.45054   0.25300   0.04226
C          C       0.48556   0.59294   0.75023  -0.13225
C          C       0.40907   0.88896   0.71964  -0.11385
C          C       0.10622   0.52328   0.78066  -0.12765
C          C       0.51565   0.40986   0.25593  -0.13101
C          C       0.58821   0.10499   0.25150  -0.11593
C          C       0.89376   0.48093   0.23275  -0.12904
C          C       0.45550   0.62601   0.74476  -0.09341
C          C       0.37354   0.82552   0.72083  -0.08735
C          C       0.16985   0.55084   0.77686  -0.09251
C          C       0.54505   0.37612   0.26063  -0.09370
C          C       0.62407   0.16942   0.25507  -0.08631
C          C       0.82962   0.45112   0.23016  -0.09319
C          C       0.48054   0.48981   0.74600   0.13253
C          C       0.51221   0.98663   0.72760   0.13432
C          C       0.00804   0.52464   0.75871   0.13465
C          C       0.52110   0.51223   0.25613   0.13154
C          C       0.48536   0.00824   0.24933   0.13366
C          C       0.99268   0.48153   0.26126   0.13426
C          C       0.48675   0.40232   0.73124   0.17715
C          C       0.59631   0.08156   0.73850   0.17362
C          C       0.91481   0.51448   0.75371   0.18180
C          C       0.51409   0.59938   0.27172   0.17739
C          C       0.40091   0.91227   0.23378   0.17268
C          C       0.08517   0.48990   0.26143   0.18083
C          C       0.55233   0.45137   0.75702  -0.01781
C          C       0.55153   0.10191   0.75009  -0.03295
C          C       0.89612   0.45049   0.75259  -0.02891
C          C       0.44858   0.54947   0.24387  -0.02100
C          C       0.44627   0.89329   0.22914  -0.03438
C          C       0.10454   0.55426   0.26383  -0.02844
C          C       0.59708   0.43528   0.76746  -0.14305
C          C       0.56793   0.16512   0.75850  -0.14078
C          C       0.83433   0.40493   0.75338  -0.14427
C          C       0.40317   0.56466   0.23343  -0.14095
C          C       0.43043   0.83079   0.22436  -0.13689
C          C       0.16624   0.59811   0.25824  -0.14526
C          C       0.57659   0.36961   0.75363   0.00402
C          C       0.63041   0.20953   0.75567  -0.00068
C          C       0.78973   0.42301   0.75330  -0.00185
C          C       0.42296   0.63021   0.24782   0.00291
C          C       0.36776   0.78581   0.22456  -0.00119
C          C       0.20984   0.57802   0.25247  -0.00006
C          C       0.51167   0.32082   0.72853  -0.10425
C          C       0.67534   0.19022   0.74581  -0.10356
C          C       0.80754   0.48574   0.75136  -0.11002
C          C       0.48777   0.67988   0.27463  -0.10442
C          C       0.32209   0.80312   0.22412  -0.10585
C          C       0.19138   0.51521   0.25480  -0.11028
C          C       0.46697   0.33647   0.71624  -0.16035
C          C       0.65891   0.12715   0.73758  -0.15681
C          C       0.86917   0.53112   0.75072  -0.15032
C          C       0.53318   0.66541   0.28875  -0.16204
C          C       0.33794   0.86535   0.22842  -0.15346
C          C       0.12978   0.47138   0.25944  -0.14817
C          C       0.62355   0.35171   0.76222   0.37114
C          C       0.64885   0.27587   0.75904   0.37199
C          C       0.72410   0.37606   0.75565   0.37788
C          C       0.37558   0.64727   0.23725   0.37409
C          C       0.34985   0.72119   0.22987   0.37267
C          C       0.27508   0.62306   0.24299   0.37556
S          S       0.43836   0.47271   0.22399   0.09341
S          S       0.51944   0.95993   0.23837   0.10070
S          S       0.04059   0.56435   0.27020   0.07206
S          S       0.56319   0.52832   0.77590   0.09215
S          S       0.47859   0.03625   0.74573   0.09874
S          S       0.96075   0.44209   0.75132   0.07264
N          N       0.29711   0.60197   0.74147  -0.41062
N          N       0.39452   0.69164   0.73090  -0.40293
N          N       0.30293   0.69837   0.73308  -0.40812
N          N       0.70241   0.39777   0.25831  -0.40977
N          N       0.60481   0.30774   0.26647  -0.40449
N          N       0.69604   0.29985   0.25918  -0.40843
N          N       0.44794   0.42527   0.72465  -0.34587
N          N       0.57275   0.01665   0.72578  -0.34926
N          N       0.97783   0.55486   0.75776  -0.33683
N          N       0.55338   0.57698   0.27868  -0.34512
N          N       0.42443   0.97713   0.24595  -0.34699
N          N       0.02231   0.45045   0.25977  -0.33525
N          N       0.68310   0.39627   0.76065  -0.41683
N          N       0.60443   0.29209   0.76736  -0.41368
N          N       0.70900   0.31562   0.75062  -0.41333
N          N       0.31608   0.60302   0.24024  -0.41682
N          N       0.39459   0.70616   0.22848  -0.41508
N          N       0.28979   0.68190   0.23975  -0.41327

