data_crystal

_audit_creation_method 'AiiDA-DDEC plugin'

_cell_length_a        18.81903
_cell_length_b        18.64837
_cell_length_c        31.31379

_cell_angle_alpha     90.28365
_cell_angle_beta     90.18823
_cell_angle_gamma     90.09693

_symmetry_space_group_name_Hall 'P 1'
_symmetry_space_group_name_H-M  'P 1'

loop_
_symmetry_equiv_pos_as_xyz
 'x,y,z'

loop_
_atom_site_label
_atom_site_type_symbol
_atom_site_fract_x
_atom_site_fract_y
_atom_site_fract_z
_atom_site_charge
H          H       0.40201   0.27935   0.79941   0.11130
H          H       0.57908   0.72095   0.80453   0.11133
H          H       0.71735   0.38726   0.29632   0.11160
H          H       0.28390   0.57469   0.30929   0.11085
H          H       0.58169   0.72205   0.19485   0.11075
H          H       0.42109   0.27927   0.19384   0.10992
H          H       0.27993   0.58253   0.69564   0.11124
H          H       0.72273   0.43019   0.69033   0.11161
H          H       0.48197   0.34679   0.75315   0.10875
H          H       0.50483   0.64832   0.75678   0.11036
H          H       0.65124   0.47002   0.25046   0.10858
H          H       0.35516   0.50338   0.25998   0.11001
H          H       0.51160   0.65078   0.24452   0.10834
H          H       0.49535   0.34993   0.24283   0.11067
H          H       0.35129   0.50716   0.74298   0.11059
H          H       0.64898   0.49887   0.73985   0.10929
H          H       0.41809   0.54376   0.81350   0.11048
H          H       0.59105   0.45566   0.81065   0.11297
H          H       0.45927   0.42197   0.31881   0.11324
H          H       0.54657   0.59362   0.31276   0.11176
H          H       0.58822   0.45705   0.18618   0.11375
H          H       0.41273   0.54496   0.18987   0.11481
H          H       0.54277   0.58561   0.68497   0.11435
H          H       0.46079   0.40125   0.68730   0.11431
H          H       0.33663   0.47522   0.86062   0.12007
H          H       0.66851   0.52947   0.85827   0.11988
H          H       0.52624   0.33884   0.36538   0.12123
H          H       0.47376   0.66884   0.36193   0.11922
H          H       0.66247   0.52926   0.13724   0.11991
H          H       0.33490   0.47332   0.14137   0.11991
H          H       0.47030   0.66258   0.63701   0.12043
H          H       0.53615   0.32861   0.63842   0.12085
H          H       0.25791   0.85447   0.47254   0.11156
H          H       0.74733   0.11264   0.45522   0.11720
H          H       0.12871   0.26800   0.96621   0.11318
H          H       0.87202   0.73973   0.96019   0.11712
H          H       0.74604   0.14339   0.52825   0.11218
H          H       0.25664   0.87349   0.54347   0.11593
H          H       0.84374   0.73994   0.02320   0.10856
H          H       0.13307   0.26891   0.03406   0.11199
H          H       0.32539   0.77217   0.42457   0.11835
H          H       0.67781   0.19749   0.40965   0.11857
H          H       0.21364   0.33306   0.91916   0.11880
H          H       0.78860   0.67511   0.91113   0.11796
H          H       0.68112   0.22727   0.57656   0.11760
H          H       0.32208   0.78491   0.58826   0.11710
H          H       0.76427   0.67598   0.07327   0.11775
H          H       0.21688   0.33178   0.08354   0.11793
H          H       0.12875   0.69291   0.37254   0.10880
H          H       0.86598   0.32460   0.39170   0.10894
H          H       0.30036   0.13118   0.87786   0.10905
H          H       0.69645   0.87654   0.87489   0.10962
H          H       0.88006   0.30044   0.62851   0.10856
H          H       0.12707   0.67009   0.60939   0.10976
H          H       0.72284   0.87420   0.13893   0.10902
H          H       0.29593   0.12818   0.12609   0.10938
H          H       0.06107   0.77329   0.42121   0.11594
H          H       0.93481   0.24062   0.43738   0.12014
H          H       0.21647   0.06642   0.92535   0.11713
H          H       0.77673   0.94055   0.92558   0.11737
H          H       0.94503   0.21728   0.58024   0.11467
H          H       0.06205   0.75770   0.56442   0.11932
H          H       0.79877   0.93929   0.08751   0.11217
H          H       0.21493   0.06531   0.07530   0.11594
H          H       0.23692   0.65281   0.34231   0.06470
H          H       0.75762   0.36500   0.36090   0.06697
H          H       0.35075   0.23529   0.85115   0.06427
H          H       0.65516   0.76983   0.84092   0.06503
H          H       0.77306   0.34513   0.65860   0.06496
H          H       0.23621   0.62349   0.63912   0.06738
H          H       0.67254   0.76602   0.16635   0.06517
H          H       0.33876   0.23308   0.15977   0.06490
C          C       0.87477   0.88275   0.97803  -0.06506
C          C       0.11929   0.12393   0.97826  -0.06807
C          C       0.11514   0.86851   0.47842  -0.06940
C          C       0.88612   0.12383   0.47845  -0.07045
C          C       0.11966   0.12426   0.02175  -0.06725
C          C       0.87381   0.88342   0.02164  -0.06580
C          C       0.88870   0.12602   0.52187  -0.06895
C          C       0.11671   0.87083   0.52183  -0.07013
C          C       0.40479   0.33734   0.80302  -0.17417
C          C       0.58388   0.66289   0.80563  -0.17245
C          C       0.66104   0.39580   0.30214  -0.17924
C          C       0.34135   0.58108   0.30980  -0.17405
C          C       0.58653   0.66397   0.19381  -0.17479
C          C       0.41713   0.33744   0.19323  -0.17143
C          C       0.33748   0.58319   0.69255  -0.17301
C          C       0.66557   0.42129   0.69019  -0.17355
C          C       0.44998   0.37586   0.77625  -0.14045
C          C       0.54128   0.62158   0.77843  -0.13936
C          C       0.62304   0.44221   0.27566  -0.13819
C          C       0.38197   0.54011   0.28170  -0.13914
C          C       0.54613   0.62324   0.22209  -0.13889
C          C       0.45983   0.37757   0.22102  -0.13798
C          C       0.37814   0.54069   0.71981  -0.13893
C          C       0.62345   0.46080   0.71835  -0.13970
C          C       0.45462   0.45080   0.77866   0.05983
C          C       0.54467   0.54650   0.77856   0.06120
C          C       0.54985   0.45246   0.28078   0.05544
C          C       0.45631   0.54510   0.28119   0.05844
C          C       0.54827   0.54801   0.22153   0.05809
C          C       0.45792   0.45271   0.22115   0.05924
C          C       0.45258   0.54173   0.71838   0.05738
C          C       0.54922   0.45287   0.71921   0.05867
C          C       0.41409   0.48579   0.81018  -0.12800
C          C       0.58968   0.51389   0.80866  -0.12851
C          C       0.51605   0.41486   0.31396  -0.12983
C          C       0.48886   0.59099   0.31122  -0.12771
C          C       0.58953   0.51512   0.18959  -0.13145
C          C       0.41331   0.48669   0.19140  -0.12987
C          C       0.48511   0.58505   0.68736  -0.12967
C          C       0.51836   0.40584   0.68910  -0.13123
C          C       0.36873   0.44787   0.83677  -0.15213
C          C       0.63285   0.55470   0.83547  -0.15043
C          C       0.55333   0.36820   0.34028  -0.15808
C          C       0.44865   0.63274   0.33901  -0.15307
C          C       0.63060   0.55532   0.16167  -0.15421
C          C       0.36987   0.44710   0.16414  -0.15273
C          C       0.44501   0.62796   0.66034  -0.15567
C          C       0.56003   0.36559   0.66132  -0.15504
C          C       0.36291   0.37270   0.83374   0.19732
C          C       0.63206   0.63022   0.83393   0.19575
C          C       0.62704   0.35834   0.33520   0.19885
C          C       0.37387   0.62932   0.33850   0.19733
C          C       0.63158   0.63082   0.16387   0.19842
C          C       0.36984   0.37155   0.16497   0.19719
C          C       0.37024   0.62810   0.66248   0.19624
C          C       0.63472   0.37132   0.66181   0.19937
C          C       0.15480   0.81871   0.45066   0.08791
C          C       0.84501   0.17245   0.45039   0.08997
C          C       0.16821   0.16302   0.94986   0.08974
C          C       0.82708   0.84394   0.94818   0.08855
C          C       0.85005   0.17585   0.55015   0.08909
C          C       0.15534   0.82040   0.54998   0.08925
C          C       0.82582   0.84475   0.05075   0.08877
C          C       0.16917   0.16281   0.05059   0.08772
C          C       0.22974   0.81785   0.45137  -0.13043
C          C       0.77260   0.15983   0.44173  -0.13545
C          C       0.16728   0.23844   0.94736  -0.13328
C          C       0.83141   0.76905   0.94281  -0.13600
C          C       0.77520   0.17904   0.54955  -0.13097
C          C       0.22869   0.82840   0.55758  -0.13642
C          C       0.81549   0.76991   0.04752  -0.13109
C          C       0.16999   0.23828   0.05345  -0.13298
C          C       0.26760   0.77252   0.42459  -0.10273
C          C       0.73388   0.20659   0.41624  -0.10475
C          C       0.21403   0.27480   0.92083  -0.10295
C          C       0.78593   0.73301   0.91501  -0.10392
C          C       0.73885   0.22545   0.57651  -0.10328
C          C       0.26529   0.77948   0.58265  -0.10330
C          C       0.77176   0.73369   0.07577  -0.10203
C          C       0.21616   0.27355   0.08125  -0.10365
C          C       0.23169   0.72694   0.39575   0.05457
C          C       0.76677   0.26721   0.39832   0.05585
C          C       0.26292   0.23649   0.89557   0.05592
C          C       0.73583   0.77116   0.89063   0.05741
C          C       0.77603   0.27009   0.60534   0.05506
C          C       0.22950   0.72120   0.60129   0.05624
C          C       0.73736   0.77058   0.10913   0.05339
C          C       0.26228   0.23427   0.10779   0.05597
C          C       0.15690   0.72795   0.39480  -0.13103
C          C       0.83968   0.27859   0.40599  -0.12813
C          C       0.26299   0.16106   0.89754  -0.13163
C          C       0.73409   0.84644   0.89423  -0.13143
C          C       0.85074   0.26630   0.60630  -0.13185
C          C       0.15573   0.71435   0.59474  -0.13124
C          C       0.74854   0.84501   0.11305  -0.13135
C          C       0.26043   0.15887   0.10564  -0.13176
C          C       0.11887   0.77309   0.42190  -0.13893
C          C       0.87849   0.23165   0.43153  -0.13411
C          C       0.21607   0.12469   0.92404  -0.13616
C          C       0.77883   0.88242   0.92270  -0.13512
C          C       0.88729   0.21977   0.57928  -0.14024
C          C       0.11901   0.76349   0.56952  -0.13411
C          C       0.79168   0.88159   0.08435  -0.13911
C          C       0.21496   0.12357   0.07732  -0.13633
C          C       0.27011   0.68075   0.36614   0.06583
C          C       0.72740   0.31807   0.37188   0.06854
C          C       0.31337   0.27177   0.86722   0.06701
C          C       0.68633   0.73453   0.86183   0.06587
C          C       0.73901   0.31809   0.63479   0.06653
C          C       0.26775   0.66897   0.62732   0.06817
C          C       0.69170   0.73328   0.13941   0.06576
C          C       0.31165   0.26930   0.13735   0.06681
C          C       0.02639   0.97062   0.49957  -0.12641
C          C       0.97888   0.02561   0.49959  -0.12723
C          C       0.02289   0.02927  -0.00011  -0.12593
C          C       0.97162   0.97764  -0.00008  -0.12812
C          C       0.50355   0.49986   0.25128   0.00999
C          C       0.50034   0.49760   0.74872   0.00902
S          S       0.05927   0.93049   0.45243   0.07801
S          S       0.94152   0.06161   0.45252   0.08558
S          S       0.05830   0.06612   0.95264   0.08162
S          S       0.93666   0.93910   0.95279   0.08563
S          S       0.94745   0.06582   0.54710   0.07558
S          S       0.06269   0.93499   0.54707   0.08380
S          S       0.93576   0.94108   0.04708   0.07650
S          S       0.05898   0.06649   0.04718   0.08136
N          N       0.33841   0.67412   0.36768  -0.29733
N          N       0.66104   0.30943   0.36242  -0.28762
N          N       0.31419   0.34035   0.86172  -0.29624
N          N       0.67994   0.66552   0.86155  -0.29524
N          N       0.67090   0.32653   0.63298  -0.29801
N          N       0.33468   0.67619   0.63553  -0.29118
N          N       0.67594   0.66614   0.13470  -0.29529
N          N       0.32202   0.33777   0.13672  -0.29666

