data_crystal

_audit_creation_method 'AiiDA-DDEC plugin'

_cell_length_a        21.37131
_cell_length_b        21.48377
_cell_length_c        26.01196

_cell_angle_alpha     90.22389
_cell_angle_beta     89.92838
_cell_angle_gamma     90.07452

_symmetry_space_group_name_Hall 'P 1'
_symmetry_space_group_name_H-M  'P 1'

loop_
_symmetry_equiv_pos_as_xyz
 'x,y,z'

loop_
_atom_site_label
_atom_site_type_symbol
_atom_site_fract_x
_atom_site_fract_y
_atom_site_fract_z
_atom_site_charge
H          H       0.39244   0.25799   0.25276   0.11795
H          H       0.52685   0.66822   0.25225   0.11427
H          H       0.68392   0.40691   0.73847   0.11666
H          H       0.27038   0.53022   0.75940   0.11384
H          H       0.53031   0.67031   0.52747   0.11471
H          H       0.40118   0.24822   0.53449   0.11471
H          H       0.24762   0.52638   0.03942   0.11394
H          H       0.67229   0.39994   0.02523   0.11460
H          H       0.38792   0.16599   0.31157   0.11977
H          H       0.53252   0.76290   0.30884   0.11412
H          H       0.77802   0.40303   0.79585   0.11201
H          H       0.17745   0.53734   0.81835   0.12114
H          H       0.53607   0.76436   0.47125   0.11755
H          H       0.39575   0.15283   0.47869   0.11640
H          H       0.15158   0.53251   0.98466   0.11434
H          H       0.76543   0.39705   0.96692   0.11482
H          H       0.54609   0.33419   0.21397   0.06439
H          H       0.37741   0.57949   0.22677   0.06626
H          H       0.57403   0.54436   0.73268   0.06443
H          H       0.33888   0.37723   0.71445   0.06657
H          H       0.37962   0.58290   0.55384   0.06474
H          H       0.54535   0.35208   0.54037   0.06392
H          H       0.36152   0.39111   0.03374   0.06420
H          H       0.58600   0.54962   0.05760   0.06467
H          H       0.35926   0.41017   0.16033   0.11414
H          H       0.56702   0.51707   0.16607   0.11257
H          H       0.52286   0.36062   0.65998   0.11199
H          H       0.41207   0.56584   0.66249   0.11185
H          H       0.56943   0.51772   0.61092   0.11298
H          H       0.36332   0.40809   0.61552   0.11144
H          H       0.41187   0.56792   0.11543   0.11248
H          H       0.51857   0.36171   0.11402   0.11113
H          H       0.39987   0.36740   0.11260   0.10349
H          H       0.52856   0.56258   0.11929   0.10043
H          H       0.56507   0.40071   0.61183   0.10104
H          H       0.36729   0.52510   0.61607   0.10114
H          H       0.53098   0.56142   0.65935   0.10040
H          H       0.40570   0.36473   0.66158   0.10100
H          H       0.36512   0.52799   0.16079   0.10153
H          H       0.56158   0.40084   0.16262   0.10146
H          H       0.58770   0.17373   0.32960   0.11554
H          H       0.33701   0.74319   0.34400   0.11285
H          H       0.73339   0.58552   0.85360   0.11115
H          H       0.16834   0.33766   0.82431   0.11738
H          H       0.33973   0.74613   0.43809   0.11356
H          H       0.57988   0.19244   0.42064   0.11121
H          H       0.20167   0.35906   0.91253   0.11101
H          H       0.74844   0.59409   0.94245   0.11561
H          H       0.59223   0.26452   0.27064   0.10676
H          H       0.33133   0.65010   0.28707   0.10693
H          H       0.64067   0.58939   0.79632   0.10810
H          H       0.26193   0.33079   0.76737   0.10827
H          H       0.33404   0.65335   0.49469   0.10845
H          H       0.58591   0.28600   0.47707   0.10780
H          H       0.29694   0.35334   0.96675   0.10849
H          H       0.65629   0.59674   0.00066   0.10655
H          H       0.46800   0.42359   0.73151   0.11156
H          H       0.47120   0.50592   0.73007   0.10519
H          H       0.50187   0.45991   0.23372   0.11141
H          H       0.41901   0.46434   0.23151   0.10788
H          H       0.46882   0.50721   0.04615   0.10930
H          H       0.46482   0.42479   0.04479   0.10526
H          H       0.42270   0.46466   0.54467   0.10977
H          H       0.50555   0.46141   0.54277   0.10755
C          C       0.48459   0.10994   0.35981  -0.07143
C          C       0.44052   0.81452   0.36380  -0.07136
C          C       0.81648   0.48968   0.86310  -0.06784
C          C       0.11245   0.44304   0.86015  -0.07216
C          C       0.44216   0.81558   0.41600  -0.07079
C          C       0.48374   0.11116   0.41204  -0.07206
C          C       0.11419   0.44878   0.91219  -0.06929
C          C       0.81739   0.49170   0.91538  -0.06875
C          C       0.54497   0.19240   0.31308  -0.13724
C          C       0.37869   0.72662   0.32427  -0.13540
C          C       0.72217   0.54602   0.82908  -0.13481
C          C       0.19096   0.37979   0.81044  -0.14094
C          C       0.38150   0.72921   0.45727  -0.13593
C          C       0.54058   0.20496   0.44508  -0.13007
C          C       0.21220   0.39600   0.93976  -0.13147
C          C       0.73146   0.55147   0.96004  -0.13713
C          C       0.54735   0.24323   0.27993  -0.13401
C          C       0.37561   0.67446   0.29214  -0.13103
C          C       0.67028   0.54815   0.79663  -0.12902
C          C       0.24319   0.37608   0.77831  -0.13408
C          C       0.37844   0.67733   0.48927  -0.13333
C          C       0.54388   0.25723   0.47687  -0.13168
C          C       0.26542   0.39288   0.97046  -0.13001
C          C       0.67997   0.55284   0.99306  -0.13255
C          C       0.49246   0.26737   0.25806   0.05871
C          C       0.42897   0.65320   0.26592   0.05570
C          C       0.65600   0.49789   0.76395   0.05270
C          C       0.27219   0.43038   0.75994   0.05534
C          C       0.43207   0.65563   0.51467   0.05769
C          C       0.49371   0.27333   0.50920   0.05373
C          C       0.27855   0.43973   0.00670   0.05158
C          C       0.65817   0.49838   0.01680   0.05792
C          C       0.43476   0.23916   0.26992  -0.10621
C          C       0.48579   0.68539   0.27249  -0.10369
C          C       0.69548   0.44546   0.76397  -0.10386
C          C       0.24781   0.48865   0.77440  -0.09990
C          C       0.48903   0.68756   0.50770  -0.10509
C          C       0.43991   0.23532   0.50939  -0.10311
C          C       0.23685   0.49019   0.01142  -0.10350
C          C       0.68942   0.44200   0.00683  -0.10339
C          C       0.43243   0.18818   0.30275  -0.13474
C          C       0.48879   0.73761   0.30400  -0.13407
C          C       0.74748   0.44352   0.79583  -0.13534
C          C       0.19622   0.49236   0.80686  -0.13402
C          C       0.49195   0.73974   0.47637  -0.13648
C          C       0.43702   0.18256   0.47832  -0.13810
C          C       0.18363   0.49339   0.98090  -0.13911
C          C       0.74107   0.44061   0.97433  -0.13161
C          C       0.48742   0.16451   0.32515   0.08980
C          C       0.43538   0.75867   0.33065   0.09074
C          C       0.76117   0.49343   0.82944   0.08863
C          C       0.16740   0.43798   0.82552   0.08951
C          C       0.43829   0.76087   0.45023   0.09143
C          C       0.48698   0.16707   0.44515   0.08864
C          C       0.17071   0.44645   0.94431   0.08790
C          C       0.76243   0.49522   0.95001   0.08909
C          C       0.46151   0.46280   0.20769  -0.28924
C          C       0.46907   0.46401   0.70580  -0.29531
C          C       0.46493   0.46292   0.56868  -0.29446
C          C       0.46572   0.46556   0.07043  -0.29762
C          C       0.49766   0.32091   0.22332   0.06353
C          C       0.42479   0.59883   0.23167   0.06910
C          C       0.60068   0.50055   0.73066   0.06980
C          C       0.32615   0.42522   0.72505   0.06390
C          C       0.42739   0.60094   0.54822   0.06740
C          C       0.49944   0.32875   0.54216   0.07056
C          C       0.33428   0.43422   0.03926   0.07271
C          C       0.60403   0.50217   0.05151   0.06735
C          C       0.46207   0.93096   0.38796  -0.12512
C          C       0.47125   0.99369   0.38719  -0.12868
C          C       0.99611   0.45962   0.88778  -0.12752
C          C       0.93312   0.46880   0.88832  -0.12737
C          C       0.40579   0.46831   0.10352   0.27092
C          C       0.52392   0.46181   0.10543   0.27596
C          C       0.46331   0.40420   0.60267   0.27371
C          C       0.46854   0.52194   0.60270   0.27127
C          C       0.52719   0.46080   0.67060   0.27317
C          C       0.40880   0.46568   0.67319   0.27465
C          C       0.46614   0.52228   0.17481   0.27117
C          C       0.45964   0.40458   0.17260   0.27103
C          C       0.40211   0.40924   0.13698  -0.30278
C          C       0.52556   0.51910   0.14121  -0.31329
C          C       0.52290   0.40254   0.63595  -0.30698
C          C       0.41085   0.52374   0.63840  -0.30891
C          C       0.52807   0.51878   0.63603  -0.30610
C          C       0.40626   0.40758   0.63872  -0.31809
C          C       0.40910   0.52567   0.13902  -0.31294
C          C       0.51907   0.40309   0.13903  -0.31490
S          S       0.45752   0.88785   0.44560   0.07921
S          S       0.47846   0.03896   0.44377   0.07715
S          S       0.04191   0.45792   0.94420   0.07563
S          S       0.88969   0.47798   0.94559   0.08456
S          S       0.47984   0.03655   0.32974   0.08224
S          S       0.45392   0.88535   0.33170   0.07940
S          S       0.88798   0.47404   0.83176   0.07740
S          S       0.03867   0.44594   0.83061   0.08605
N          N       0.44990   0.35011   0.20581  -0.30481
N          N       0.47324   0.57660   0.20890  -0.30667
N          N       0.58436   0.45465   0.70182  -0.30903
N          N       0.35537   0.47333   0.70830  -0.30490
N          N       0.47570   0.57672   0.56945  -0.30543
N          N       0.45434   0.34812   0.57064  -0.31022
N          N       0.34950   0.47669   0.07173  -0.31093
N          N       0.57956   0.45396   0.07254  -0.30770

