data_crystal

_audit_creation_method 'AiiDA-DDEC plugin'

_cell_length_a        31.80118
_cell_length_b        31.65433
_cell_length_c         9.37534

_cell_angle_alpha     91.05235
_cell_angle_beta     91.93672
_cell_angle_gamma     83.49282

_symmetry_space_group_name_Hall 'P 1'
_symmetry_space_group_name_H-M  'P 1'

loop_
_symmetry_equiv_pos_as_xyz
 'x,y,z'

loop_
_atom_site_label
_atom_site_type_symbol
_atom_site_fract_x
_atom_site_fract_y
_atom_site_fract_z
_atom_site_charge
H          H       0.15355   0.29213   0.03343   0.12201
H          H       0.15277   0.12396   0.07500   0.13362
H          H       0.20950   0.05696   0.01663   0.13312
H          H       0.43869   0.08476   0.06903   0.12302
H          H       0.43976   0.25540   0.06925   0.12819
H          H       0.38081   0.32122   0.01605   0.13279
H          H       0.27334   0.16754   0.03541   0.26985
H          H       0.32022   0.20860   0.01557   0.27013
H          H       0.16354   0.16844   0.31022   0.10444
H          H       0.08975   0.16388   0.38412   0.11946
H          H       0.46121   0.20591   0.25634   0.11076
H          H       0.53974   0.19899   0.24605   0.11972
H          H       0.25255   0.37142   0.05917   0.11202
H          H       0.33221   0.00586   0.12465   0.11394
H          H       0.32470   0.93156   0.04786   0.12341
H          H       0.19735   0.34526   0.53334   0.12201
H          H       0.38110   0.04617   0.47396   0.12147
H          H       0.10910   0.25026   0.49894   0.11393
H          H       0.03526   0.24485   0.56586   0.12009
H          H       0.47262   0.14787   0.44554   0.11256
H          H       0.54607   0.16153   0.51503   0.11629
H          H       0.31423   0.32931   0.25481   0.10594
H          H       0.32792   0.40318   0.19734   0.12045
H          H       0.24863   0.05494   0.27644   0.10314
H          H       0.23946   0.97887   0.22526   0.12241
H          H       0.26508   0.44457   0.00041   0.12094
H          H       0.37268   0.53045   0.09313   0.11356
H          H       0.37173   0.60523   0.15775   0.11023
H          H       0.33513   0.73808   0.22853   0.09857
H          H       0.40421   0.75362   0.32837   0.10298
H          H       0.23783   0.77692   0.16177   0.11466
H          H       0.25301   0.64025   0.20610   0.10388
H          H       0.24081   0.85034   0.08814   0.11210
H          H       0.18076   0.63482   0.27967   0.11100
H          H       0.23926   0.57313   0.34141   0.11138
H          H       0.24497   0.64570   0.42754   0.10341
H          H       0.36908   0.62464   0.42136   0.10635
H          H       0.44120   0.63560   0.36602   0.10506
H          H       0.34238   0.74291   0.43241   0.10600
H          H       0.20990   0.74838   0.44633   0.11478
H          H       0.34340   0.81681   0.36456   0.11355
H          H       0.13558   0.74146   0.49247   0.11003
H          H       0.94146   0.60675   0.10040   0.12088
H          H       0.93669   0.77812   0.06862   0.13304
H          H       0.87586   0.84062   0.00143   0.13216
H          H       0.65180   0.80369   0.10361   0.12273
H          H       0.65553   0.63406   0.02942   0.13713
H          H       0.71592   0.57152   0.96502   0.13268
H          H       0.81954   0.72605   0.03739   0.27055
H          H       0.77363   0.68441   0.04841   0.27043
H          H       0.93725   0.74064   0.30869   0.10295
H          H       0.01296   0.74418   0.37949   0.12187
H          H       0.65437   0.66476   0.27563   0.09509
H          H       0.57969   0.65991   0.32554   0.12185
H          H       0.83622   0.52435   0.10819   0.11243
H          H       0.75298   0.88792   0.11585   0.11348
H          H       0.76169   0.96160   0.05069   0.12005
H          H       0.88125   0.55247   0.45926   0.12042
H          H       0.71288   0.85947   0.48673   0.12037
H          H       0.97731   0.64806   0.46136   0.11374
H          H       0.05167   0.65427   0.54106   0.11914
H          H       0.62697   0.77087   0.39175   0.10612
H          H       0.54993   0.76927   0.38819   0.12232
H          H       0.74874   0.56737   0.25156   0.10413
H          H       0.73737   0.49239   0.19480   0.12327
H          H       0.84346   0.83728   0.26497   0.10166
H          H       0.85475   0.91074   0.19776   0.12144
H          H       0.73117   0.36888   0.08624   0.11189
H          H       0.73161   0.29466   0.15636   0.11252
H          H       0.75527   0.16374   0.21856   0.10184
H          H       0.68432   0.14150   0.24166   0.11081
H          H       0.85620   0.12113   0.17728   0.11190
H          H       0.84732   0.25987   0.18814   0.10248
H          H       0.85119   0.04639   0.11306   0.10973
H          H       0.92119   0.26515   0.25918   0.11232
H          H       0.83598   0.32326   0.30730   0.11048
H          H       0.83206   0.24975   0.38063   0.10386
H          H       0.70135   0.26312   0.41914   0.11284
H          H       0.62724   0.25796   0.47022   0.11291
H          H       0.74087   0.14896   0.40756   0.10507
H          H       0.87657   0.14687   0.42473   0.11092
H          H       0.74426   0.07536   0.32307   0.11064
H          H       0.95081   0.15331   0.49142   0.11425
H          H       0.82381   0.45061   0.03914   0.11849
H          H       0.14513   0.29229   0.62787   0.12052
H          H       0.15089   0.12077   0.57735   0.13268
H          H       0.21070   0.05849   0.50762   0.13177
H          H       0.43768   0.09967   0.54742   0.12162
H          H       0.42801   0.26890   0.52429   0.13446
H          H       0.36545   0.33097   0.47130   0.13263
H          H       0.26706   0.17361   0.54952   0.26739
H          H       0.31115   0.21661   0.53694   0.27033
H          H       0.15417   0.15733   0.81398   0.10173
H          H       0.07984   0.15062   0.87620   0.12253
H          H       0.42517   0.23153   0.78558   0.10347
H          H       0.49882   0.24543   0.85279   0.12120
H          H       0.25045   0.37695   0.63291   0.10902
H          H       0.33726   0.01671   0.61898   0.11517
H          H       0.32935   0.94080   0.56387   0.12081
H          H       0.21015   0.33899   0.93388   0.12008
H          H       0.37949   0.03356   0.00721   0.12148
H          H       0.11488   0.24696   0.95764   0.10984
H          H       0.04208   0.24470   0.03916   0.11839
H          H       0.45507   0.12781   0.87798   0.11452
H          H       0.53379   0.11816   0.87402   0.12449
H          H       0.34720   0.32169   0.76497   0.10350
H          H       0.36129   0.39511   0.71215   0.12383
H          H       0.24899   0.05211   0.77586   0.10460
H          H       0.24033   0.97749   0.70224   0.12553
H          H       0.25988   0.45087   0.56498   0.12042
H          H       0.34752   0.52780   0.61660   0.11056
H          H       0.35500   0.60166   0.68876   0.11509
H          H       0.36304   0.73076   0.71577   0.10145
H          H       0.43580   0.74224   0.65853   0.11180
H          H       0.23582   0.77818   0.69640   0.11059
H          H       0.25063   0.64956   0.74416   0.10167
H          H       0.23558   0.85277   0.63323   0.10951
H          H       0.17681   0.64335   0.80284   0.11228
H          H       0.25472   0.55982   0.84751   0.11221
H          H       0.25266   0.63335   0.92653   0.10369
H          H       0.39608   0.64206   0.95479   0.11121
H          H       0.46583   0.65775   0.05261   0.11158
H          H       0.33933   0.73323   0.88548   0.10404
H          H       0.20790   0.74591   0.93749   0.11095
H          H       0.34202   0.80600   0.80159   0.11435
H          H       0.13535   0.74090   0.00542   0.11187
H          H       0.93960   0.60159   0.55355   0.12142
H          H       0.93956   0.77102   0.58081   0.13281
H          H       0.88214   0.83644   0.51051   0.13345
H          H       0.65520   0.80973   0.56120   0.12625
H          H       0.65222   0.63932   0.52706   0.13329
H          H       0.71051   0.57335   0.47805   0.13281
H          H       0.82014   0.72463   0.52044   0.26798
H          H       0.77209   0.68544   0.51316   0.26847
H          H       0.93320   0.72853   0.81333   0.10368
H          H       0.00784   0.73708   0.88596   0.12098
H          H       0.64182   0.68287   0.73874   0.10771
H          H       0.56381   0.67967   0.72905   0.12406
H          H       0.83668   0.52438   0.59104   0.11436
H          H       0.76022   0.88841   0.59331   0.11288
H          H       0.77037   0.96133   0.52239   0.11794
H          H       0.88619   0.55473   0.00519   0.12166
H          H       0.70541   0.85612   0.01868   0.12036
H          H       0.97567   0.64851   0.98165   0.11330
H          H       0.05078   0.65089   0.05684   0.12019
H          H       0.61755   0.76232   0.96785   0.11225
H          H       0.54268   0.75785   0.01912   0.12124
H          H       0.76048   0.57170   0.74396   0.10581
H          H       0.74582   0.49781   0.68086   0.12232
H          H       0.83205   0.84063   0.77118   0.10550
H          H       0.84304   0.91480   0.71301   0.12430
H          H       0.73481   0.36611   0.59538   0.11125
H          H       0.73048   0.29204   0.65911   0.11303
H          H       0.74077   0.15648   0.68922   0.10185
H          H       0.66731   0.15120   0.74857   0.11353
H          H       0.85354   0.11883   0.66892   0.11289
H          H       0.83593   0.25120   0.70456   0.10343
H          H       0.85693   0.04412   0.59393   0.11321
H          H       0.90963   0.25684   0.78420   0.11129
H          H       0.83967   0.33168   0.82251   0.11341
H          H       0.84061   0.25853   0.90417   0.10239
H          H       0.70575   0.26165   0.92608   0.11357
H          H       0.63519   0.23918   0.93818   0.11003
H          H       0.75456   0.16085   0.87907   0.10553
H          H       0.88423   0.14679   0.93988   0.11282
H          H       0.74982   0.08675   0.80414   0.11280
H          H       0.95878   0.15227   0.00232   0.11233
H          H       0.82751   0.44966   0.52713   0.12088
C          C       0.18686   0.28243   0.01922  -0.19015
C          C       0.20914   0.24020   0.04370   0.19522
C          C       0.18910   0.20423   0.07825  -0.07316
C          C       0.20795   0.16163   0.06430   0.17918
C          C       0.18628   0.12428   0.05960  -0.19502
C          C       0.21523   0.08988   0.02818  -0.19991
C          C       0.25565   0.10481   0.01485   0.18022
C          C       0.40516   0.09392   0.05050  -0.18836
C          C       0.33454   0.09482   0.01455   0.19298
C          C       0.40519   0.17392   0.06186  -0.08389
C          C       0.38570   0.21632   0.05005   0.17834
C          C       0.40619   0.25423   0.05038  -0.19872
C          C       0.37599   0.28802   0.02076  -0.19711
C          C       0.33594   0.27202  -0.00085   0.18093
C          C       0.29467   0.07950   0.99612  -0.08348
C          C       0.38367   0.13727   0.05145   0.19079
C          C       0.14503   0.20818   0.12834   0.08228
C          C       0.13708   0.18510   0.25008  -0.12574
C          C       0.09605   0.18250   0.29260  -0.16180
C          C       0.06177   0.20403   0.21674   0.19772
C          C       0.45230   0.16760   0.06723   0.08730
C          C       0.47703   0.18728   0.17093  -0.13101
C          C       0.52112   0.18325   0.16598  -0.17527
C          C       0.54157   0.15852   0.05705   0.20061
C          C       0.27537   0.37619   0.97917  -0.12069
C          C       0.28278   0.41753   0.94800  -0.17807
C          C       0.29157   0.03449   0.95482   0.08239
C          C       0.31318  -0.00017   0.02946  -0.11883
C          C       0.30883   0.95813   0.98738  -0.17469
C          C       0.28223   0.95016   0.86957   0.19906
C          C       0.24448   0.28581   0.52638   0.19185
C          C       0.20412   0.31135   0.54867  -0.18859
C          C       0.37484   0.06775   0.02088  -0.19226
C          C       0.28183   0.30288   0.49075  -0.07020
C          C       0.10316   0.22969   0.58581  -0.12086
C          C       0.06152   0.22638   0.62175  -0.17394
C          C       0.47807   0.16843   0.53694  -0.12981
C          C       0.51930   0.17627   0.57454  -0.17334
C          C       0.28145   0.34784   0.44794   0.07832
C          C       0.30249   0.35595   0.32308  -0.12294
C          C       0.30989   0.39701   0.28964  -0.16318
C          C       0.26601   0.02999   0.34026  -0.12642
C          C       0.26077   0.98765   0.31111  -0.16636
C          C       0.29422   0.43111   0.37662   0.19974
C          C       0.11221   0.69231   0.20732   0.16922
C          C       0.36368   0.71962   0.19269  -0.13008
C          C       0.40286   0.72874   0.24726  -0.12702
C          C       0.44034   0.70423   0.20682   0.03798
C          C       0.28583   0.74823   0.01875   0.07054
C          C       0.25946   0.78318   0.07928  -0.13191
C          C       0.22733   0.66278   0.16537  -0.13490
C          C       0.26097   0.82441   0.03916  -0.13847
C          C       0.18679   0.65932   0.20560  -0.13046
C          C       0.28975   0.83391   0.93109  -0.00476
C          C       0.29495   0.54487   0.46388  -0.01204
C          C       0.26392   0.57946   0.41961  -0.13070
C          C       0.34800   0.55351   0.04887  -0.12895
C          C       0.26760   0.62003   0.46665  -0.13588
C          C       0.34721   0.59563   0.08458  -0.14108
C          C       0.31476   0.62798   0.03319   0.06703
C          C       0.31724   0.67216   0.05707  -0.04628
C          C       0.35948   0.68565   0.09600   0.07339
C          C       0.28049   0.70443   0.04965  -0.05643
C          C       0.38359   0.64993   0.47703  -0.12961
C          C       0.42453   0.65633   0.44450  -0.12786
C          C       0.23776   0.69635   0.07732   0.06582
C          C       0.31883   0.76680   0.47392  -0.13979
C          C       0.20248   0.72677   0.52831  -0.13161
C          C       0.31972   0.80832   0.43665  -0.12704
C          C       0.16079   0.72314   0.55354  -0.13701
C          C       0.15212   0.68983   0.15887  -0.00642
C          C       0.29668   0.50557   0.40579   0.18065
C          C       0.48292   0.70684   0.28056   0.13990
C          C       0.28574   0.87384   0.87767   0.18607
C          C       0.90850   0.61536   0.07086  -0.19106
C          C       0.88582   0.65809   0.07172   0.19626
C          C       0.90520   0.69591   0.09309  -0.08306
C          C       0.88407   0.73706   0.06719   0.18183
C          C       0.90321   0.77554   0.05388  -0.19693
C          C       0.87190   0.80762   0.01795  -0.19368
C          C       0.83215   0.79019   0.00931   0.17608
C          C       0.68446   0.79537   0.07595  -0.18579
C          C       0.75285   0.79650   0.01819   0.19110
C          C       0.68775   0.71469   0.08729  -0.06634
C          C       0.70886   0.67384   0.05671   0.18337
C          C       0.68921   0.63601   0.02719  -0.18975
C          C       0.72028   0.60406   0.99219  -0.19500
C          C       0.76015   0.62118  -0.00189   0.17699
C          C       0.79137   0.81318   0.99094  -0.07189
C          C       0.70711   0.75269   0.07301   0.19508
C          C       0.95049   0.69424   0.13966   0.07976
C          C       0.96200   0.72122   0.25228  -0.12822
C          C       0.00421   0.72322   0.29297  -0.16221
C          C       0.03642   0.69783   0.22326   0.19706
C          C       0.64252   0.71499   0.12184   0.06442
C          C       0.62996   0.68541   0.21891  -0.12597
C          C       0.58772   0.68275   0.24849  -0.17679
C          C       0.55521   0.71038   0.18126   0.22360
C          C       0.81790   0.51860   0.01118  -0.12044
C          C       0.81068   0.47725   0.97366  -0.17251
C          C       0.79180   0.85828   0.94843   0.08265
C          C       0.77115   0.89338   0.02317  -0.11905
C          C       0.77636   0.93500   0.98807  -0.17108
C          C       0.80312   0.94287   0.87779   0.19850
C          C       0.83568   0.61241   0.48970   0.19277
C          C       0.87624   0.58571   0.48994  -0.18879
C          C       0.71216   0.82224   0.03438  -0.19040
C          C       0.79586   0.59708   0.46710  -0.07988
C          C       0.98363   0.66588   0.55848  -0.12157
C          C       0.02543   0.66970   0.60149  -0.17254
C          C       0.61346   0.75173   0.46958  -0.12163
C          C       0.56986   0.74994   0.46392  -0.17267
C          C       0.79338   0.55178   0.42633   0.07870
C          C       0.76553   0.54170   0.31376  -0.12231
C          C       0.75919   0.49980   0.28095  -0.16373
C          C       0.82759   0.86439   0.32218  -0.12861
C          C       0.83406   0.90534   0.28393  -0.16136
C          C       0.78137   0.46641   0.35804   0.20023
C          C       0.98643   0.20516   0.19783   0.17218
C          C       0.72857   0.18048   0.16064  -0.12968
C          C       0.68901   0.16772   0.17265  -0.12577
C          C       0.65371   0.18796   0.08942  -0.00254
C          C       0.80814   0.14768   0.02415   0.07345
C          C       0.83403   0.11350   0.09233  -0.13295
C          C       0.87153   0.23533   0.15381  -0.13706
C          C       0.83146   0.07153   0.05717  -0.13276
C          C       0.91293   0.23895   0.19121  -0.12716
C          C       0.80219   0.06026   0.94515  -0.00645
C          C       0.78335   0.35065   0.43604  -0.00466
C          C       0.81293   0.31630   0.38420  -0.12415
C          C       0.75343   0.34429   0.03982  -0.13744
C          C       0.81023   0.27518   0.42415  -0.13425
C          C       0.75392   0.30272   0.07858  -0.13310
C          C       0.78348   0.26921   0.02404   0.06230
C          C       0.77938   0.22532   0.05239  -0.05399
C          C       0.73678   0.21470   0.07316   0.07229
C          C       0.81498   0.19189   0.05155  -0.05592
C          C       0.69385   0.24003   0.49609  -0.13204
C          C       0.65228   0.23718   0.52324  -0.14576
C          C       0.85848   0.19971   0.07418   0.06363
C          C       0.76746   0.12658   0.44155  -0.13976
C          C       0.88393   0.16949   0.50797  -0.13061
C          C       0.76877   0.08514   0.39603  -0.12820
C          C       0.92549   0.17278   0.54458  -0.13659
C          C       0.94585   0.20650   0.14880  -0.00758
C          C       0.78119   0.39100   0.38695   0.17383
C          C       0.61493   0.17350   0.08113   0.16389
C          C       0.80384   0.01908   0.89901   0.17987
C          C       0.17729   0.28422   0.59445  -0.18965
C          C       0.20038   0.24168   0.58886   0.19559
C          C       0.18202   0.20356   0.60792  -0.08206
C          C       0.20309   0.16245   0.57891   0.18225
C          C       0.18403   0.12367   0.56359  -0.19595
C          C       0.21481   0.09160   0.52623  -0.19399
C          C       0.25402   0.10944   0.51667   0.17742
C          C       0.40366   0.10703   0.53602  -0.19284
C          C       0.33314   0.10443   0.50495   0.18939
C          C       0.39827   0.18735   0.56731  -0.08332
C          C       0.37590   0.22790   0.54358   0.18349
C          C       0.39440   0.26631   0.52093  -0.19794
C          C       0.36221   0.29808   0.49229  -0.18923
C          C       0.32278   0.28034   0.49789   0.17854
C          C       0.29423   0.08697   0.49070  -0.07322
C          C       0.37988   0.14895   0.55012   0.19592
C          C       0.13751   0.20425   0.65165   0.07959
C          C       0.12819   0.17621   0.75843  -0.12665
C          C       0.08676   0.17235   0.79391  -0.16336
C          C       0.05309   0.19702   0.72467   0.19594
C          C       0.44337   0.18909   0.61009   0.08101
C          C       0.45161   0.21640   0.72570  -0.11984
C          C       0.49255   0.22436   0.76362  -0.16066
C          C       0.52655   0.20488   0.68665   0.19921
C          C       0.26521   0.38265   0.53311  -0.11965
C          C       0.27102   0.42398   0.49690  -0.17665
C          C       0.29342   0.04135   0.45209   0.07857
C          C       0.31698   0.00847   0.52948  -0.11999
C          C       0.31232   0.96596   0.49989  -0.17356
C          C       0.28337   0.95542   0.39230   0.19912
C          C       0.25682   0.28046   0.98000   0.19352
C          C       0.21598   0.30664   0.97086  -0.18493
C          C       0.37474   0.07968   0.50017  -0.18483
C          C       0.29643   0.29606   0.96474  -0.08260
C          C       0.11013   0.23058   0.05563  -0.12038
C          C       0.06897   0.22884   0.09948  -0.17459
C          C       0.47359   0.14219   0.96127  -0.11730
C          C       0.51750   0.13702   0.95773  -0.16183
C          C       0.29944   0.34041   0.91959   0.07691
C          C       0.32971   0.34839   0.81941  -0.12446
C          C       0.33764   0.38954   0.78858  -0.16555
C          C       0.26516   0.02573   0.83660  -0.12557
C          C       0.26032   0.98415   0.79456  -0.16479
C          C       0.31514   0.42453   0.85617   0.20102
C          C       0.10939   0.69601   0.70210   0.17137
C          C       0.38008   0.70926   0.64094  -0.13445
C          C       0.42108   0.71625   0.60703  -0.12538
C          C       0.44290   0.69163   0.50082   0.03886
C          C       0.28662   0.75320   0.55876   0.06896
C          C       0.25806   0.78655   0.61896  -0.12932
C          C       0.22525   0.67028   0.69363  -0.13612
C          C       0.25780   0.82852   0.58476  -0.14531
C          C       0.18410   0.66606   0.72412  -0.11943
C          C       0.28732   0.84078   0.48335  -0.00464
C          C       0.31599   0.53887   0.95197  -0.01328
C          C       0.28046   0.56988   0.91442  -0.11897
C          C       0.32676   0.55409   0.57070  -0.13027
C          C       0.27998   0.61140   0.95643  -0.14008
C          C       0.33045   0.59521   0.61044  -0.13393
C          C       0.30281   0.63065   0.55453   0.07169
C          C       0.31304   0.67330   0.57550  -0.04861
C          C       0.35906   0.67744   0.57118   0.07225
C          C       0.28051   0.70909   0.57925  -0.05370
C          C       0.39756   0.66559   0.04016  -0.13530
C          C       0.43699   0.67464   0.09429  -0.12930
C          C       0.23671   0.70216   0.60202   0.07389
C          C       0.31752   0.75903   0.92647  -0.13192
C          C       0.20220   0.72311   0.01795  -0.13080
C          C       0.31970   0.79971   0.88179  -0.11052
C          C       0.16136   0.72057   0.05518  -0.14292
C          C       0.15008   0.69437   0.66117  -0.00510
C          C       0.31911   0.49891   0.89763   0.17503
C          C       0.48309   0.70409   0.44349   0.13315
C          C       0.28382   0.88087   0.43231   0.16876
C          C       0.90610   0.61096   0.53558  -0.19025
C          C       0.88421   0.65371   0.55110   0.19440
C          C       0.90459   0.69044   0.58128  -0.07461
C          C       0.88509   0.73240   0.56161   0.18073
C          C       0.90613   0.77009   0.55875  -0.19396
C          C       0.87673   0.80358   0.52123  -0.19226
C          C       0.83640   0.78786   0.50149   0.17940
C          C       0.68791   0.80004   0.53670  -0.18190
C          C       0.75742   0.79803   0.49229   0.19401
C          C       0.68734   0.72030   0.54642  -0.06105
C          C       0.70673   0.67792   0.53039   0.17940
C          C       0.68590   0.64017   0.51815  -0.18412
C          C       0.71586   0.60630   0.49188  -0.19684
C          C       0.75634   0.62185   0.48656   0.18108
C          C       0.79727   0.81275   0.47520  -0.07407
C          C       0.70897   0.75665   0.53557   0.19134
C          C       0.94961   0.68793   0.63154   0.08174
C          C       0.95910   0.71243   0.75305  -0.12670
C          C       0.00066   0.71719   0.79457  -0.16059
C          C       0.03404   0.69633   0.71774   0.19777
C          C       0.64076   0.72541   0.56058   0.06335
C          C       0.62185   0.70079   0.65917  -0.13333
C          C       0.57856   0.69885   0.65442  -0.17024
C          C       0.55201   0.72050   0.54797   0.21988
C          C       0.81632   0.51762   0.49998  -0.11712
C          C       0.81081   0.47558   0.46586  -0.17649
C          C       0.80047   0.85719   0.43292   0.07818
C          C       0.77950   0.89297   0.50262  -0.12100
C          C       0.78551   0.93401   0.46408  -0.17666
C          C       0.81309   0.94041   0.35481   0.19988
C          C       0.83935   0.61462   0.00932   0.19005
C          C       0.88009   0.58865   0.02430  -0.18909
C          C       0.71756   0.82549   0.50143  -0.19371
C          C       0.80047   0.59829   0.97900  -0.07030
C          C       0.98338   0.66826   0.07270  -0.11779
C          C       0.02571   0.66979   0.11363  -0.17557
C          C       0.60981   0.74151   0.05168  -0.13245
C          C       0.56766   0.73884   0.07903  -0.16533
C          C       0.79894   0.55344   0.93170   0.08035
C          C       0.77400   0.54520   0.80948  -0.12454
C          C       0.76588   0.50403   0.77324  -0.16186
C          C       0.81695   0.86705   0.83376  -0.12691
C          C       0.82311   0.90851   0.80026  -0.16272
C          C       0.78378   0.46994   0.85624   0.19426
C          C       0.97702   0.20019   0.70439   0.17339
C          C       0.71597   0.17934   0.64579  -0.13270
C          C       0.67484   0.17564   0.67673  -0.12806
C          C       0.64120   0.20636   0.62364  -0.00582
C          C       0.80096   0.14197   0.52660   0.06376
C          C       0.83134   0.10952   0.58671  -0.13278
C          C       0.86124   0.22898   0.66355  -0.13393
C          C       0.83343   0.06767   0.54579  -0.14419
C          C       0.90240   0.23270   0.70595  -0.12336
C          C       0.80408   0.05446   0.43674  -0.00843
C          C       0.78310   0.35599   0.93790  -0.00805
C          C       0.81598   0.32347   0.89503  -0.12795
C          C       0.75452   0.34049   0.54308  -0.13696
C          C       0.81591   0.28248   0.93886  -0.13565
C          C       0.75240   0.29891   0.57833  -0.13289
C          C       0.77834   0.26406   0.51523   0.06977
C          C       0.77139   0.22038   0.54273  -0.05300
C          C       0.72809   0.21311   0.56235   0.06190
C          C       0.80627   0.18633   0.54812  -0.05471
C          C       0.70091   0.23617  -0.00218  -0.13699
C          C       0.66108   0.22373   0.00397  -0.12613
C          C       0.84968   0.19525   0.57300   0.07166
C          C       0.77610   0.13564   0.92671  -0.13256
C          C       0.89223   0.17116   0.01608  -0.13181
C          C       0.77295   0.09417   0.88629  -0.12095
C          C       0.93401   0.17397   0.04980  -0.14070
C          C       0.93622   0.20263   0.65488  -0.00547
C          C       0.78013   0.39573   0.88507   0.17505
C          C       0.60097   0.20769   0.66675   0.16274
C          C       0.81062   0.01534   0.37651   0.17512
N          N       0.25161   0.23977   0.01975  -0.41471
N          N       0.24971   0.14824   0.03682  -0.25301
N          N       0.34064   0.13690   0.03322  -0.40874
N          N       0.34311   0.22878   0.02203  -0.25456
N          N       0.27507   0.90858   0.82450  -0.23494
N          N       0.58534   0.15534   0.03341  -0.21720
N          N       0.02090   0.19712   0.25971  -0.23293
N          N       0.30477   0.47178   0.34099  -0.23853
N          N       0.84366   0.65670   0.03764  -0.41117
N          N       0.84126   0.74748   0.03916  -0.25661
N          N       0.74891   0.75433   0.04150  -0.41202
N          N       0.75162   0.66336   0.03819  -0.25389
N          N       0.81274   0.98402   0.84348  -0.22490
N          N       0.51230   0.71054   0.19013  -0.30760
N          N       0.07861   0.70356   0.26524  -0.23736
N          N       0.77163   0.42471   0.32494  -0.23308
N          N       0.24149   0.24357   0.55084  -0.41131
N          N       0.24529   0.15227   0.54889  -0.25324
N          N       0.33717   0.14660   0.53268  -0.40923
N          N       0.33276   0.23781   0.52759  -0.25238
N          N       0.27468   0.91321   0.36208  -0.23798
N          N       0.56707   0.21647   0.72550  -0.23477
N          N       0.01182   0.18961   0.76103  -0.22948
N          N       0.32597   0.46572   0.82773  -0.23664
N          N       0.84151   0.65383   0.52350  -0.41118
N          N       0.84306   0.74476   0.52675  -0.25226
N          N       0.75145   0.75631   0.51250  -0.40761
N          N       0.74929   0.66518   0.51178  -0.25510
N          N       0.82133   0.98160   0.31359  -0.24962
N          N       0.51111   0.71023   0.54405  -0.31312
N          N       0.07527   0.70566   0.75825  -0.23298
N          N       0.77260   0.42896   0.81882  -0.23709

