data_crystal

_audit_creation_method 'AiiDA-DDEC plugin'

_cell_length_a        18.69772
_cell_length_b        18.45847
_cell_length_c        42.48505

_cell_angle_alpha     89.75287
_cell_angle_beta     90.31669
_cell_angle_gamma     90.08610

_symmetry_space_group_name_Hall 'P 1'
_symmetry_space_group_name_H-M  'P 1'

loop_
_symmetry_equiv_pos_as_xyz
 'x,y,z'

loop_
_atom_site_label
_atom_site_type_symbol
_atom_site_fract_x
_atom_site_fract_y
_atom_site_fract_z
_atom_site_charge
H          H       0.55115   0.40497   0.45780   0.10637
H          H       0.44981   0.60181   0.45748   0.10592
H          H       0.40269   0.45405   0.54142   0.10636
H          H       0.59556   0.55212   0.54285   0.10567
H          H       0.94224   0.39701   0.29099   0.10567
H          H       0.05046   0.59524   0.29167   0.10638
H          H       0.09791   0.44354   0.21012   0.10491
H          H       0.90151   0.55019   0.20878   0.10553
H          H       0.05671   0.90340   0.95729   0.10665
H          H       0.94971   0.09982   0.95728   0.10527
H          H       0.90665   0.94932   0.03996   0.10552
H          H       0.10194   0.05111   0.03944   0.10494
H          H       0.44253   0.89926   0.78920   0.10523
H          H       0.55590   0.10504   0.78854   0.10504
H          H       0.59948   0.94788   0.71090   0.10480
H          H       0.39657   0.05625   0.71120   0.10582
H          H       0.75582   0.68109   0.57603   0.14638
H          H       0.24175   0.32485   0.57393   0.14928
H          H       0.68314   0.24202   0.42676   0.14644
H          H       0.31052   0.75834   0.42530   0.14792
H          H       0.75124   0.67912   0.17393   0.14753
H          H       0.25518   0.32135   0.17587   0.14734
H          H       0.80884   0.24241   0.32406   0.14564
H          H       0.17895   0.75854   0.32334   0.15019
H          H       0.26110   0.16615   0.08070   0.14765
H          H       0.74638   0.81744   0.07337   0.14925
H          H       0.19809   0.74748   0.93048   0.14964
H          H       0.81408   0.25999   0.92707   0.14856
H          H       0.23843   0.17678   0.67188   0.14887
H          H       0.75652   0.81948   0.67612   0.14896
H          H       0.30796   0.74007   0.82429   0.14741
H          H       0.68194   0.26334   0.82542   0.14851
H          H       0.61738   0.08968   0.73533   0.11308
H          H       0.38105   0.91160   0.73724   0.11267
H          H       0.08932   0.37639   0.26250   0.11370
H          H       0.91038   0.61668   0.26059   0.11234
H          H       0.88559   0.09288   0.01067   0.11194
H          H       0.12039   0.90626   0.00900   0.11191
H          H       0.41062   0.38364   0.48818   0.11335
H          H       0.59671   0.61966   0.49069   0.11228
H          H       0.11929   0.58270   0.23809   0.11208
H          H       0.88114   0.40283   0.23809   0.11202
H          H       0.58555   0.88164   0.76442   0.11285
H          H       0.41396   0.12301   0.76415   0.11269
H          H       0.38550   0.60038   0.50747   0.11299
H          H       0.61560   0.40659   0.51060   0.11196
H          H       0.91081   0.88201   0.98830   0.11293
H          H       0.09148   0.12231   0.98737   0.11359
H          H       0.62335   0.18947   0.69671   0.11950
H          H       0.37460   0.80927   0.70036   0.12034
H          H       0.19296   0.37062   0.29829   0.12085
H          H       0.80829   0.62692   0.29656   0.12145
H          H       0.87916   0.19242   0.04903   0.12017
H          H       0.12738   0.80340   0.04588   0.11955
H          H       0.31085   0.37488   0.45036   0.12039
H          H       0.70213   0.62460   0.45646   0.12012
H          H       0.13141   0.67962   0.19857   0.12014
H          H       0.87362   0.30428   0.19933   0.12040
H          H       0.68539   0.87394   0.80217   0.12066
H          H       0.31661   0.13194   0.80261   0.12026
H          H       0.38036   0.70684   0.54196   0.12090
H          H       0.62162   0.30568   0.54846   0.12025
H          H       0.80592   0.87561   0.95333   0.12032
H          H       0.19458   0.13119   0.95182   0.12063
H          H       0.34097   0.11651   0.67090   0.06436
H          H       0.65608   0.88402   0.67350   0.06371
H          H       0.11447   0.65072   0.33041   0.06511
H          H       0.87689   0.34253   0.32793   0.06337
H          H       0.15790   0.11073   0.07864   0.06365
H          H       0.85042   0.88429   0.07767   0.06484
H          H       0.38374   0.65935   0.42035   0.06405
H          H       0.61596   0.34789   0.42109   0.06493
H          H       0.84881   0.61272   0.16969   0.06274
H          H       0.15306   0.38334   0.17100   0.06373
H          H       0.61850   0.16128   0.82699   0.06333
H          H       0.38089   0.84335   0.82778   0.06379
H          H       0.65149   0.61694   0.57996   0.06433
H          H       0.34635   0.39204   0.58041   0.06563
H          H       0.88368   0.15659   0.92021   0.06432
H          H       0.12344   0.84770   0.92109   0.06420
H          H       0.77240   0.56486   0.42327   0.35947
H          H       0.24239   0.43204   0.41521   0.35889
H          H       0.56377   0.24031   0.58441   0.35786
H          H       0.43945   0.77747   0.57590   0.36022
H          H       0.73715   0.57009   0.33066   0.35942
H          H       0.26371   0.43042   0.33135   0.35883
H          H       0.93055   0.24007   0.16280   0.35748
H          H       0.07716   0.74644   0.16173   0.35742
H          H       0.26822   0.07210   0.91953   0.36389
H          H       0.73525   0.93473   0.91911   0.35887
H          H       0.06963   0.73466   0.08111   0.36380
H          H       0.93819   0.25892   0.08482   0.35773
H          H       0.24957   0.07418   0.83803   0.35746
H          H       0.75567   0.93325   0.83615   0.35802
H          H       0.43327   0.73983   0.66645   0.35876
H          H       0.56311   0.25902   0.66252   0.36290
C          C       0.58506   0.45302   0.45825  -0.16180
C          C       0.41852   0.55198   0.45661  -0.16123
C          C       0.45074   0.42081   0.54233  -0.16249
C          C       0.54846   0.58679   0.54195  -0.16068
C          C       0.91215   0.44750   0.29146  -0.16133
C          C       0.08264   0.54606   0.29226  -0.15964
C          C       0.04862   0.41218   0.20855  -0.16287
C          C       0.95188   0.57977   0.20744  -0.16165
C          C       0.08792   0.95326   0.95706  -0.16024
C          C       0.91757   0.05059   0.95706  -0.16055
C          C       0.95485   0.91622   0.04045  -0.16117
C          C       0.05304   0.08290   0.04093  -0.16156
C          C       0.41392   0.95038   0.79130  -0.16291
C          C       0.58507   0.05422   0.79088  -0.16278
C          C       0.55013   0.91658   0.70935  -0.16161
C          C       0.44631   0.08661   0.70883  -0.16234
C          C       0.64602   0.45315   0.43894  -0.04411
C          C       0.36025   0.54978   0.43548  -0.04404
C          C       0.45136   0.36215   0.56359  -0.04263
C          C       0.54816   0.64811   0.56150  -0.04436
C          C       0.85311   0.45080   0.31183  -0.04426
C          C       0.14307   0.54549   0.31219  -0.04659
C          C       0.04695   0.35483   0.18688  -0.04228
C          C       0.95613   0.63667   0.18539  -0.04222
C          C       0.14800   0.95566   0.93732  -0.04318
C          C       0.85702   0.04952   0.93724  -0.04436
C          C       0.95591   0.85618   0.06090  -0.04241
C          C       0.05198   0.14032   0.06255  -0.04371
C          C       0.35709   0.95288   0.81287  -0.04239
C          C       0.64278   0.05219   0.81232  -0.04294
C          C       0.54882   0.85773   0.68840  -0.04417
C          C       0.44738   0.14425   0.68705  -0.04336
C          C       0.75441   0.71059   0.59810  -0.29423
C          C       0.24254   0.29349   0.59564  -0.29553
C          C       0.70999   0.24353   0.40414  -0.29510
C          C       0.28304   0.75706   0.40271  -0.29485
C          C       0.75170   0.70821   0.15165  -0.29412
C          C       0.25491   0.28830   0.15475  -0.29368
C          C       0.78250   0.24373   0.34679  -0.29213
C          C       0.20712   0.75692   0.34579  -0.29713
C          C       0.25819   0.19952   0.10168  -0.29172
C          C       0.74897   0.78782   0.09551  -0.29558
C          C       0.22114   0.74699   0.90706  -0.29813
C          C       0.78595   0.25928   0.90460  -0.29624
C          C       0.24092   0.20823   0.65022  -0.29404
C          C       0.75480   0.79035   0.65395  -0.29573
C          C       0.28495   0.74321   0.84769  -0.29229
C          C       0.70975   0.26085   0.84794  -0.29300
C          C       0.81858   0.72961   0.61247   0.17185
C          C       0.17800   0.27093   0.60847   0.17095
C          C       0.72727   0.17856   0.38963   0.17298
C          C       0.25884   0.82170   0.38968   0.17008
C          C       0.68700   0.72812   0.13810   0.17086
C          C       0.31987   0.26661   0.14226   0.17216
C          C       0.76385   0.17862   0.36108   0.16886
C          C       0.22132   0.82167   0.36121   0.17111
C          C       0.32152   0.22014   0.11637   0.17075
C          C       0.68557   0.76826   0.11020   0.17076
C          C       0.23706   0.68099   0.89319   0.17109
C          C       0.76591   0.32494   0.89105   0.17115
C          C       0.17743   0.22680   0.63522   0.17197
C          C       0.81873   0.77066   0.63996   0.17170
C          C       0.26792   0.67920   0.86337   0.16823
C          C       0.72700   0.32548   0.86284   0.16962
C          C       0.56934   0.10469   0.72234  -0.10794
C          C       0.42845   0.89692   0.72405  -0.10733
C          C       0.10363   0.42418   0.27600  -0.10671
C          C       0.89494   0.56979   0.27454  -0.10503
C          C       0.93249   0.10563   0.02483  -0.10604
C          C       0.07394   0.89301   0.02317  -0.10759
C          C       0.39719   0.43048   0.47376  -0.10749
C          C       0.60980   0.57258   0.47661  -0.10397
C          C       0.07312   0.59732   0.22377  -0.10633
C          C       0.92797   0.39010   0.22414  -0.10610
C          C       0.60101   0.92985   0.77738  -0.10450
C          C       0.39860   0.07495   0.77738  -0.10558
C          C       0.43152   0.61311   0.52217  -0.10691
C          C       0.56927   0.39489   0.52508  -0.10673
C          C       0.89638   0.92935   0.97440  -0.10535
C          C       0.10679   0.07507   0.97382  -0.10474
C          C       0.57285   0.16134   0.70049  -0.25368
C          C       0.42461   0.83899   0.70307  -0.25276
C          C       0.16265   0.42080   0.29623  -0.25507
C          C       0.83696   0.57573   0.29495  -0.25505
C          C       0.92880   0.16221   0.04654  -0.25470
C          C       0.07801   0.83444   0.04406  -0.25362
C          C       0.34052   0.42545   0.45232  -0.25349
C          C       0.66976   0.57551   0.45719  -0.25404
C          C       0.08007   0.65249   0.20138  -0.25350
C          C       0.92356   0.33408   0.20217  -0.25431
C          C       0.65775   0.92532   0.79880  -0.25493
C          C       0.34329   0.08015   0.79920  -0.25314
C          C       0.42845   0.67358   0.54179  -0.25496
C          C       0.57279   0.33756   0.54661  -0.25407
C          C       0.83681   0.92559   0.95449  -0.25316
C          C       0.16531   0.08031   0.95363  -0.25588
C          C       0.38196   0.15949   0.66933   0.08681
C          C       0.61410   0.84225   0.67104   0.08547
C          C       0.15886   0.61141   0.32988   0.08935
C          C       0.83628   0.38560   0.32986   0.08655
C          C       0.11694   0.15344   0.08082   0.08669
C          C       0.89092   0.84082   0.07860   0.08728
C          C       0.34363   0.61575   0.41786   0.08527
C          C       0.65986   0.38794   0.42063   0.08845
C          C       0.89150   0.65379   0.16750   0.08761
C          C       0.11245   0.33998   0.16949   0.08851
C          C       0.65930   0.11844   0.82955   0.08629
C          C       0.34021   0.88628   0.83001   0.08758
C          C       0.61212   0.66146   0.58045   0.08640
C          C       0.38597   0.34779   0.58128   0.08724
C          C       0.84084   0.11541   0.91950   0.08767
C          C       0.16531   0.88985   0.92017   0.08644
C          C       0.30702   0.23091   0.63797   0.14566
C          C       0.68892   0.77134   0.64009   0.14690
C          C       0.22984   0.69054   0.35880   0.14879
C          C       0.76598   0.31034   0.36099   0.14507
C          C       0.19163   0.22270   0.11323   0.14673
C          C       0.81540   0.76782   0.10865   0.14908
C          C       0.26945   0.69065   0.38765   0.14497
C          C       0.72880   0.31022   0.39027   0.14857
C          C       0.81674   0.72693   0.13726   0.14572
C          C       0.18993   0.26656   0.14085   0.14796
C          C       0.72904   0.19374   0.86121   0.14537
C          C       0.27067   0.81076   0.86152   0.14426
C          C       0.68874   0.73137   0.61135   0.14685
C          C       0.30793   0.27366   0.60983   0.14710
C          C       0.76813   0.19303   0.89021   0.14844
C          C       0.23658   0.81244   0.89147   0.14762
C          C       0.56710   0.51028   0.47820   0.03399
C          C       0.43664   0.49462   0.47681   0.03559
C          C       0.50757   0.43732   0.52219   0.03530
C          C       0.49267   0.56949   0.52119   0.03526
C          C       0.93299   0.50477   0.27186   0.03424
C          C       0.06341   0.48782   0.27293   0.03506
C          C       0.99121   0.42985   0.22811   0.03530
C          C       0.00823   0.56039   0.22760   0.03495
C          C       0.06783   0.01046   0.97657   0.03569
C          C       0.93717   0.99283   0.97669   0.03369
C          C       0.01151   0.93442   0.02051   0.03617
C          C       0.99540   0.06559   0.02120   0.03401
C          C       0.43448   0.00934   0.77257   0.03585
C          C       0.56426   0.99508   0.77247   0.03465
C          C       0.49207   0.93595   0.72817   0.03592
C          C       0.50522   0.06724   0.72752   0.03582
C          C       0.68981   0.51618   0.43891   0.28059
C          C       0.32035   0.48427   0.43347   0.28080
C          C       0.51467   0.31992   0.56575   0.27830
C          C       0.48650   0.69303   0.56087   0.28011
C          C       0.81440   0.51687   0.31322   0.28081
C          C       0.18430   0.48099   0.31375   0.28094
C          C       0.98216   0.31516   0.18365   0.27877
C          C       0.02246   0.67351   0.18233   0.27856
C          C       0.18786   0.02105   0.93590   0.27876
C          C       0.81558   0.98501   0.93620   0.27940
C          C       0.01972   0.81450   0.06267   0.27816
C          C       0.98781   0.18112   0.06514   0.27990
C          C       0.32117   0.02001   0.81680   0.27902
C          C       0.68029   0.98573   0.81598   0.28090
C          C       0.48409   0.81772   0.68561   0.28049
C          C       0.51250   0.18307   0.68333   0.27903
C          C       0.50078   0.50291   0.49958   0.03145
C          C      -0.00133   0.49557   0.25038   0.03164
C          C       0.00303   0.00086   0.99855   0.03056
C          C       0.49894   0.00195   0.75020   0.03081
N          N       0.37213   0.21773   0.65302  -0.23088
N          N       0.62327   0.78507   0.65421  -0.23076
N          N       0.21886   0.62422   0.34387  -0.23073
N          N       0.77956   0.37702   0.34660  -0.23093
N          N       0.12672   0.20999   0.09800  -0.23150
N          N       0.88042   0.78141   0.09392  -0.23010
N          N       0.28629   0.62401   0.40126  -0.22738
N          N       0.71778   0.37643   0.40514  -0.22978
N          N       0.88299   0.71199   0.15102  -0.23141
N          N       0.12355   0.28102   0.15416  -0.22839
N          N       0.71593   0.12747   0.84657  -0.23188
N          N       0.28344   0.87704   0.84662  -0.23130
N          N       0.62336   0.71980   0.59630  -0.22735
N          N       0.37401   0.28807   0.59614  -0.22685
N          N       0.78186   0.12624   0.90439  -0.22699
N          N       0.22417   0.87968   0.90522  -0.22662
O          O       0.74976   0.51770   0.42076  -0.41307
O          O       0.26412   0.47970   0.41292  -0.41442
O          O       0.51774   0.26406   0.58688  -0.41339
O          O       0.48526   0.75355   0.57917  -0.41371
O          O       0.75681   0.52148   0.33267  -0.41248
O          O       0.24310   0.47866   0.33285  -0.41244
O          O       0.97837   0.26083   0.16199  -0.41274
O          O       0.02882   0.72708   0.16027  -0.41184
O          O       0.24635   0.02464   0.91689  -0.41714
O          O       0.75704   0.98237   0.91692  -0.41201
O          O       0.02287   0.75716   0.08301  -0.41675
O          O       0.98522   0.23658   0.08622  -0.41106
O          O       0.26727   0.02462   0.83822  -0.41118
O          O       0.73640   0.98220   0.83660  -0.41243
O          O       0.48128   0.76016   0.66562  -0.41269
O          O       0.51476   0.23947   0.66252  -0.41669
F          F       0.27088   0.88547   0.40480  -0.13551
F          F       0.70837   0.11448   0.40322  -0.13508
F          F       0.88197   0.70840   0.59994  -0.13495
F          F       0.11476   0.29154   0.59515  -0.13411
F          F       0.19793   0.88549   0.34878  -0.13402
F          F       0.78114   0.11462   0.34722  -0.13503
F          F       0.62463   0.70841   0.15203  -0.13373
F          F       0.38199   0.29135   0.15522  -0.13427
F          F       0.78439   0.38836   0.90543  -0.13629
F          F       0.22224   0.61806   0.90873  -0.13494
F          F       0.38528   0.19480   0.10560  -0.13529
F          F       0.62148   0.78818   0.09756  -0.13378
F          F       0.70514   0.38914   0.84966  -0.13486
F          F       0.28132   0.61428   0.84959  -0.13445
F          F       0.11417   0.20159   0.64648  -0.13415
F          F       0.88215   0.79154   0.65288  -0.13490

