data_crystal

_audit_creation_method 'AiiDA-DDEC plugin'

_cell_length_a        18.10334
_cell_length_b        18.04444
_cell_length_c        43.06816

_cell_angle_alpha     89.89421
_cell_angle_beta     89.97342
_cell_angle_gamma     90.20189

_symmetry_space_group_name_Hall 'P 1'
_symmetry_space_group_name_H-M  'P 1'

loop_
_symmetry_equiv_pos_as_xyz
 'x,y,z'

loop_
_atom_site_label
_atom_site_type_symbol
_atom_site_fract_x
_atom_site_fract_y
_atom_site_fract_z
_atom_site_charge
H          H       0.37113   0.70601   0.54362   0.12060
H          H       0.62562   0.30748   0.55094   0.12070
H          H       0.69552   0.62899   0.45094   0.12101
H          H       0.30172   0.36887   0.45047   0.12116
H          H       0.12998   0.69033   0.19770   0.12086
H          H       0.87446   0.29343   0.20365   0.12096
H          H       0.79516   0.62652   0.29381   0.12055
H          H       0.19330   0.37080   0.29977   0.11971
H          H       0.87679   0.19885   0.04957   0.12095
H          H       0.12715   0.79305   0.04372   0.12142
H          H       0.20142   0.13168   0.95208   0.11999
H          H       0.79798   0.87493   0.95661   0.12159
H          H       0.62648   0.20475   0.70306   0.11943
H          H       0.36560   0.81039   0.69948   0.12198
H          H       0.30737   0.13292   0.80094   0.12062
H          H       0.69092   0.86681   0.79916   0.12153
H          H       0.65481   0.61988   0.57719   0.06405
H          H       0.33714   0.38703   0.57972   0.06417
H          H       0.61925   0.33703   0.42384   0.06620
H          H       0.38203   0.65742   0.41938   0.06662
H          H       0.84005   0.61254   0.16920   0.06520
H          H       0.16105   0.37909   0.17311   0.06504
H          H       0.88166   0.34350   0.32924   0.06311
H          H       0.11548   0.66117   0.32728   0.06426
H          H       0.16458   0.11696   0.07915   0.06521
H          H       0.84479   0.88286   0.07803   0.06477
H          H       0.12048   0.84314   0.92174   0.06507
H          H       0.88177   0.16088   0.92299   0.06508
H          H       0.33875   0.12218   0.67342   0.06639
H          H       0.65753   0.88198   0.67186   0.06329
H          H       0.38394   0.84242   0.82868   0.06466
H          H       0.62122   0.15855   0.82797   0.06581
H          H       0.55151   0.39702   0.46026   0.10722
H          H       0.44518   0.60138   0.45804   0.10555
H          H       0.39406   0.44883   0.53987   0.10709
H          H       0.59718   0.55413   0.54033   0.10579
H          H       0.94617   0.39938   0.29143   0.10506
H          H       0.05242   0.60321   0.28895   0.10683
H          H       0.10139   0.44527   0.20980   0.10579
H          H       0.89694   0.54934   0.20829   0.10614
H          H       0.05479   0.90126   0.95898   0.10681
H          H       0.94974   0.10280   0.95956   0.10679
H          H       0.90420   0.94930   0.04175   0.10550
H          H       0.10620   0.05306   0.04080   0.10732
H          H       0.44506   0.89891   0.78946   0.10651
H          H       0.55667   0.10337   0.78997   0.10577
H          H       0.60128   0.94717   0.70973   0.10741
H          H       0.39770   0.05622   0.71021   0.10569
H          H       0.76249   0.69376   0.57303   0.13316
H          H       0.23203   0.30896   0.57384   0.13528
H          H       0.70069   0.23600   0.42943   0.13354
H          H       0.30476   0.76287   0.42768   0.13596
H          H       0.73763   0.69178   0.17624   0.13512
H          H       0.26588   0.30173   0.18049   0.13615
H          H       0.80916   0.23590   0.32373   0.13254
H          H       0.18987   0.76729   0.32322   0.13572
H          H       0.27002   0.19639   0.07427   0.13644
H          H       0.73505   0.81075   0.07238   0.13569
H          H       0.19836   0.73820   0.92898   0.13524
H          H       0.80606   0.26576   0.92719   0.13534
H          H       0.23436   0.19848   0.67930   0.13512
H          H       0.75694   0.80078   0.67893   0.13570
H          H       0.30839   0.73652   0.82358   0.13529
H          H       0.69973   0.25977   0.82123   0.13522
H          H       0.62079   0.09829   0.73877   0.11327
H          H       0.37613   0.91112   0.73769   0.11391
H          H       0.09115   0.37758   0.26231   0.11287
H          H       0.90136   0.61922   0.25831   0.11313
H          H       0.88335   0.09581   0.01230   0.11305
H          H       0.12232   0.90098   0.00884   0.11287
H          H       0.40313   0.37846   0.48832   0.11291
H          H       0.59194   0.62197   0.48786   0.11252
H          H       0.12023   0.59134   0.23696   0.11184
H          H       0.87949   0.39955   0.23941   0.11309
H          H       0.58952   0.87828   0.76141   0.11350
H          H       0.40834   0.12523   0.76285   0.11267
H          H       0.37698   0.59843   0.50875   0.11388
H          H       0.61776   0.40733   0.51211   0.11117
H          H       0.90700   0.88061   0.99053   0.11335
H          H       0.09807   0.12369   0.98914   0.11321
H          H       0.76290   0.56955   0.41547   0.36567
H          H       0.23442   0.42745   0.41413   0.35907
H          H       0.56745   0.24326   0.58796   0.35970
H          H       0.43233   0.77835   0.57724   0.36040
H          H       0.72415   0.56675   0.32849   0.35855
H          H       0.26204   0.43132   0.33456   0.35825
H          H       0.93576   0.22430   0.16873   0.36594
H          H       0.07271   0.75428   0.16022   0.35887
H          H       0.27229   0.07121   0.91810   0.35816
H          H       0.72405   0.93645   0.92419   0.36039
H          H       0.06666   0.72326   0.07833   0.35935
H          H       0.93652   0.26708   0.08470   0.36013
H          H       0.24125   0.07395   0.83730   0.36401
H          H       0.76202   0.92442   0.83417   0.35917
H          H       0.42316   0.74233   0.66335   0.36077
H          H       0.56588   0.27563   0.66910   0.35869
C          C       0.58419   0.44777   0.45898  -0.16292
C          C       0.41250   0.55059   0.45731  -0.15950
C          C       0.44472   0.41666   0.54150  -0.16131
C          C       0.54777   0.58841   0.54025  -0.16104
C          C       0.91202   0.44898   0.29107  -0.15837
C          C       0.08426   0.55223   0.29058  -0.16096
C          C       0.05161   0.41121   0.20917  -0.15863
C          C       0.94793   0.58146   0.20676  -0.16102
C          C       0.08816   0.95158   0.95834  -0.16079
C          C       0.91560   0.05294   0.95971  -0.16119
C          C       0.95306   0.91432   0.04152  -0.16065
C          C       0.05603   0.08614   0.04201  -0.16108
C          C       0.41382   0.95025   0.79117  -0.16350
C          C       0.58715   0.05151   0.79122  -0.16199
C          C       0.54951   0.91631   0.70824  -0.16146
C          C       0.44778   0.08979   0.70934  -0.16010
C          C       0.64438   0.44910   0.43830  -0.04240
C          C       0.35299   0.54820   0.43637  -0.04415
C          C       0.44641   0.35816   0.56312  -0.04528
C          C       0.54723   0.65063   0.55987  -0.04262
C          C       0.85053   0.45045   0.31103  -0.04381
C          C       0.14365   0.55101   0.31167  -0.04246
C          C       0.05157   0.34954   0.18927  -0.04514
C          C       0.95050   0.63971   0.18502  -0.04356
C          C       0.14875   0.95306   0.93790  -0.04625
C          C       0.85288   0.05213   0.94041  -0.04429
C          C       0.95253   0.85165   0.06094  -0.04301
C          C       0.05506   0.14595   0.06296  -0.04600
C          C       0.35526   0.95221   0.81260  -0.03996
C          C       0.64632   0.04782   0.81235  -0.04404
C          C       0.54619   0.85723   0.68699  -0.04580
C          C       0.44843   0.15118   0.68917  -0.04451
C          C       0.76050   0.71623   0.59640  -0.24447
C          C       0.23313   0.28567   0.59712  -0.24579
C          C       0.72322   0.23657   0.40603  -0.24458
C          C       0.28067   0.76319   0.40458  -0.24763
C          C       0.73777   0.71661   0.15325  -0.24625
C          C       0.26611   0.27974   0.15702  -0.24803
C          C       0.78631   0.23667   0.34706  -0.24575
C          C       0.21406   0.76555   0.34630  -0.24582
C          C       0.26842   0.21836   0.09772  -0.24829
C          C       0.73646   0.78543   0.09529  -0.24755
C          C       0.22153   0.73850   0.90571  -0.24568
C          C       0.78393   0.26377   0.90376  -0.24616
C          C       0.23449   0.22154   0.65598  -0.24525
C          C       0.75761   0.77862   0.65549  -0.24683
C          C       0.28545   0.73750   0.84688  -0.24610
C          C       0.72208   0.26034   0.84464  -0.24813
C          C       0.82686   0.72958   0.61208   0.07759
C          C       0.16629   0.26929   0.61195   0.07691
C          C       0.74295   0.16935   0.39227   0.07805
C          C       0.26414   0.83117   0.39061   0.07762
C          C       0.67040   0.73686   0.13987   0.07745
C          C       0.33384   0.26556   0.14261   0.07790
C          C       0.77416   0.16935   0.36241   0.07681
C          C       0.23103   0.83236   0.36113   0.07721
C          C       0.33502   0.23530   0.11261   0.07718
C          C       0.66968   0.77098   0.11055   0.07624
C          C       0.23810   0.67089   0.89153   0.07508
C          C       0.76931   0.33030   0.88829   0.07777
C          C       0.16699   0.23760   0.64175   0.07618
C          C       0.82539   0.76039   0.64199   0.07674
C          C       0.26986   0.67031   0.86179   0.07827
C          C       0.73877   0.32856   0.85834   0.07800
C          C       0.57208   0.11248   0.72533  -0.10667
C          C       0.42411   0.89694   0.72377  -0.10748
C          C       0.10525   0.42655   0.27574  -0.10688
C          C       0.88776   0.57142   0.27264  -0.10612
C          C       0.93177   0.10929   0.02609  -0.10675
C          C       0.07457   0.88800   0.02316  -0.10557
C          C       0.38975   0.42636   0.47410  -0.10676
C          C       0.60595   0.57320   0.47434  -0.10553
C          C       0.07249   0.60412   0.22264  -0.10547
C          C       0.92791   0.38650   0.22558  -0.10720
C          C       0.60485   0.92611   0.77532  -0.10697
C          C       0.39406   0.07625   0.77633  -0.10625
C          C       0.42512   0.61241   0.52264  -0.10635
C          C       0.56942   0.39434   0.52607  -0.10520
C          C       0.89238   0.92917   0.97697  -0.10593
C          C       0.11153   0.07554   0.97512  -0.10533
C          C       0.57548   0.17291   0.70506  -0.25325
C          C       0.41800   0.83952   0.70218  -0.25328
C          C       0.16339   0.42264   0.29696  -0.25114
C          C       0.82741   0.57574   0.29280  -0.25292
C          C       0.92791   0.16770   0.04724  -0.25455
C          C       0.07731   0.82665   0.04299  -0.25645
C          C       0.33204   0.42087   0.45266  -0.25161
C          C       0.66473   0.57734   0.45339  -0.25434
C          C       0.07805   0.66039   0.20042  -0.25362
C          C       0.92500   0.32604   0.20537  -0.25273
C          C       0.66252   0.91959   0.79669  -0.25257
C          C       0.33673   0.08084   0.79797  -0.25314
C          C       0.42171   0.67361   0.54244  -0.25260
C          C       0.57401   0.33754   0.54803  -0.25464
C          C       0.83056   0.92571   0.95767  -0.25383
C          C       0.17031   0.08014   0.95415  -0.25498
C          C       0.38098   0.16626   0.67175   0.08900
C          C       0.61334   0.84001   0.66971   0.09085
C          C       0.15896   0.61869   0.32908   0.08803
C          C       0.83633   0.38422   0.32964   0.09171
C          C       0.12225   0.16066   0.08073   0.08996
C          C       0.88508   0.83712   0.07859   0.09080
C          C       0.33742   0.61558   0.41875   0.08899
C          C       0.66104   0.38130   0.42129   0.08757
C          C       0.88323   0.65569   0.16758   0.08979
C          C       0.11914   0.33461   0.17196   0.08944
C          C       0.66346   0.11483   0.82989   0.09066
C          C       0.34009   0.88462   0.83015   0.08854
C          C       0.61370   0.66486   0.57812   0.08904
C          C       0.37924   0.34298   0.58083   0.09250
C          C       0.83781   0.11842   0.92209   0.08754
C          C       0.16444   0.88557   0.92053   0.09260
C          C       0.30197   0.23665   0.64121   0.14526
C          C       0.69067   0.76674   0.63982   0.14652
C          C       0.22962   0.69693   0.36017   0.14473
C          C       0.76792   0.30464   0.36076   0.14756
C          C       0.20006   0.23132   0.11203   0.14674
C          C       0.80451   0.76642   0.10864   0.14699
C          C       0.26479   0.69579   0.38980   0.14706
C          C       0.73418   0.30448   0.39073   0.14800
C          C       0.80514   0.72999   0.13809   0.14613
C          C       0.19894   0.26425   0.14212   0.14537
C          C       0.73523   0.19311   0.86009   0.14802
C          C       0.26994   0.80568   0.86099   0.14524
C          C       0.69201   0.73327   0.60983   0.14650
C          C       0.30121   0.27086   0.61134   0.14581
C          C       0.76845   0.19488   0.89012   0.14556
C          C       0.23616   0.80623   0.89089   0.14724
C          C       0.56485   0.50779   0.47783   0.03658
C          C       0.43059   0.49201   0.47723   0.03476
C          C       0.50414   0.43466   0.52206   0.03552
C          C       0.48916   0.56938   0.52061   0.03554
C          C       0.93052   0.50700   0.27085   0.03390
C          C       0.06510   0.49208   0.27170   0.03449
C          C       0.99191   0.42975   0.22826   0.03415
C          C       0.00678   0.56400   0.22654   0.03498
C          C       0.06999   0.01024   0.97811   0.03580
C          C       0.93515   0.99382   0.97909   0.03413
C          C       0.01157   0.93262   0.02165   0.03524
C          C       0.99656   0.06792   0.02266   0.03558
C          C       0.43309   0.01013   0.77210   0.03543
C          C       0.56657   0.99292   0.77177   0.03582
C          C       0.49052   0.93601   0.72754   0.03523
C          C       0.50736   0.07042   0.72834   0.03613
C          C       0.68498   0.51631   0.43539   0.27937
C          C       0.31210   0.48111   0.43402   0.27747
C          C       0.51339   0.31809   0.56644   0.28143
C          C       0.48229   0.69457   0.56060   0.27804
C          C       0.80717   0.51586   0.31166   0.27943
C          C       0.18406   0.48404   0.31476   0.27850
C          C       0.98603   0.30624   0.18736   0.28049
C          C       0.01799   0.67941   0.18166   0.28054
C          C       0.19068   0.01953   0.93590   0.28224
C          C       0.80886   0.98679   0.93995   0.28278
C          C       0.01710   0.80723   0.06172   0.28015
C          C       0.98869   0.18750   0.06546   0.28365
C          C       0.31586   0.01968   0.81597   0.27781
C          C       0.68471   0.97958   0.81500   0.27945
C          C       0.47815   0.81842   0.68389   0.28212
C          C       0.51456   0.19358   0.68715   0.28137
C          C       0.49700   0.50079   0.49945   0.03039
C          C      -0.00151   0.49851   0.24943   0.03159
C          C       0.00361   0.00128   0.00036   0.03023
C          C       0.49960   0.00233   0.74987   0.03099
N          N       0.37005   0.22533   0.65552  -0.22814
N          N       0.62230   0.78088   0.65341  -0.22777
N          N       0.21773   0.62928   0.34541  -0.22773
N          N       0.77689   0.37222   0.34539  -0.22986
N          N       0.13277   0.21944   0.09711  -0.22866
N          N       0.87198   0.77666   0.09360  -0.22946
N          N       0.27683   0.62732   0.40393  -0.22578
N          N       0.71954   0.37245   0.40464  -0.22882
N          N       0.87329   0.71553   0.15180  -0.22761
N          N       0.13075   0.27482   0.15641  -0.22534
N          N       0.72230   0.12441   0.84628  -0.23266
N          N       0.28101   0.87355   0.84619  -0.22697
N          N       0.62511   0.72391   0.59426  -0.22699
N          N       0.36860   0.28310   0.59655  -0.22786
N          N       0.77903   0.12803   0.90569  -0.22689
N          N       0.22431   0.87453   0.90508  -0.22973
Cl         Cl      0.28547   0.91257   0.41010  -0.08334
Cl         Cl      0.72831   0.08739   0.41254  -0.08381
Cl         Cl      0.90965   0.70706   0.59417  -0.08351
Cl         Cl      0.08400   0.28893   0.59307  -0.08281
Cl         Cl      0.21067   0.91536   0.34265  -0.08417
Cl         Cl      0.79860   0.08734   0.34415  -0.08295
Cl         Cl      0.58912   0.71935   0.16002  -0.08328
Cl         Cl      0.41495   0.28623   0.16226  -0.08315
Cl         Cl      0.78980   0.41355   0.90651  -0.08405
Cl         Cl      0.21834   0.58906   0.91110  -0.08341
Cl         Cl      0.41769   0.21830   0.09353  -0.08460
Cl         Cl      0.58738   0.79628   0.09289  -0.08288
Cl         Cl      0.72100   0.40957   0.83792  -0.08409
Cl         Cl      0.29042   0.58783   0.84307  -0.08347
Cl         Cl      0.08551   0.21758   0.66132  -0.08248
Cl         Cl      0.90612   0.77639   0.66266  -0.08322
O          O       0.74158   0.52002   0.41453  -0.41890
O          O       0.25563   0.47703   0.41310  -0.41345
O          O       0.51749   0.26286   0.58799  -0.41402
O          O       0.48054   0.75533   0.57943  -0.41397
O          O       0.74787   0.51886   0.33116  -0.41160
O          O       0.24079   0.48072   0.33557  -0.41215
O          O       0.98425   0.24762   0.16742  -0.42060
O          O       0.02298   0.73363   0.15962  -0.41374
O          O       0.24878   0.02296   0.91576  -0.41298
O          O       0.74716   0.98492   0.92187  -0.41335
O          O       0.01926   0.74759   0.08118  -0.41244
O          O       0.98527   0.24470   0.08603  -0.41506
O          O       0.26002   0.02349   0.83723  -0.41762
O          O       0.74106   0.97385   0.83588  -0.41325
O          O       0.47303   0.76265   0.66264  -0.41613
O          O       0.51760   0.25228   0.66719  -0.41419

