data_crystal

_audit_creation_method 'AiiDA-DDEC plugin'

_cell_length_a        28.49282
_cell_length_b        28.49715
_cell_length_c         8.10854

_cell_angle_alpha     111.03299
_cell_angle_beta     66.39361
_cell_angle_gamma     122.86143

_symmetry_space_group_name_Hall 'P 1'
_symmetry_space_group_name_H-M  'P 1'

loop_
_symmetry_equiv_pos_as_xyz
 'x,y,z'

loop_
_atom_site_label
_atom_site_type_symbol
_atom_site_fract_x
_atom_site_fract_y
_atom_site_fract_z
_atom_site_charge
H          H       0.92771   0.47512   0.18092   0.09337
H          H       0.54600   0.43486   0.09966   0.10459
H          H       0.55594   0.08700   0.33211   0.09235
H          H       0.22150   0.50890   0.33689   0.16122
H          H       0.46279   0.70345   0.45726   0.14866
H          H       0.29675   0.75347   0.35653   0.14706
H          H       0.09594   0.44441   0.03499   0.11313
H          H       0.55488   0.61759   0.15580   0.11339
H          H       0.36874   0.91179   0.37131   0.11449
H          H       0.81760   0.41145   0.86227   0.08473
H          H       0.57582   0.34755   0.94919   0.10314
H          H       0.63076   0.20860   0.17775   0.07245
H          H       0.40959   0.43248   0.32759   0.11920
H          H       0.56830   0.96247   0.28194   0.13590
H          H       0.04684   0.60062   0.31185   0.14607
H          H       0.44679   0.45590   0.49298   0.10937
H          H       0.55857   0.99710   0.50989   0.10558
H          H       0.01161   0.56576   0.49827   0.11837
H          H       0.52343   0.40610   0.38005   0.11466
H          H       0.60693   0.11899   0.53115   0.12932
H          H       0.88821   0.49356   0.50802   0.12912
H          H       0.49010   0.29157   0.23614   0.16020
H          H       0.72266   0.18188   0.35827   0.16177
H          H       0.82198   0.54412   0.55003   0.16212
H          H       0.37960   0.33642   0.16506   0.11406
H          H       0.66431   0.00981   0.08206   0.14072
H          H       0.99790   0.64891   0.30376   0.14218
H          H       0.39585   0.23628   0.95155   0.09170
H          H       0.76666   0.09347   0.92685   0.10210
H          H       0.91684   0.66825   0.30863   0.09903
H          H       0.34532   0.22530   0.17119   0.09988
H          H       0.78281   0.08893   0.10954   0.11083
H          H       0.90723   0.68698   0.54961   0.11444
H          H       0.45416   0.20690   0.03018   0.12268
H          H       0.80624   0.20029   0.03421   0.10809
H          H       0.80685   0.59329   0.36894   0.09928
H          H       0.38815   0.12545   0.18715   0.15982
H          H       0.87720   0.24502   0.21153   0.16662
H          H       0.74882   0.62967   0.63031   0.15740
H          H       0.32849   0.14381   0.25639   0.13276
H          H       0.85369   0.17465   0.25515   0.13467
H          H       0.81308   0.68332   0.72248   0.14187
H          H       0.63637   0.59671   0.93963   0.12793
H          H       0.37812   0.00031   0.33362   0.12787
H          H       0.01452   0.37362   0.88905   0.13213
H          H       0.90661   0.46866   0.69595   0.10023
H          H       0.52675   0.45690   0.63757   0.08857
H          H       0.55495   0.09964   0.81167   0.10148
H          H       0.21579   0.52593   0.82817   0.15649
H          H       0.44837   0.72894   0.95487   0.15321
H          H       0.27640   0.77003   0.85395   0.15228
H          H       0.08171   0.44771   0.53576   0.11239
H          H       0.54894   0.64775   0.73670   0.11532
H          H       0.35996   0.93312   0.86188   0.11228
H          H       0.81696   0.42928   0.33531   0.09287
H          H       0.57048   0.36950   0.47129   0.08714
H          H       0.63503   0.21976   0.60453   0.07675
H          H       0.39080   0.45718   0.83532   0.14591
H          H       0.55642   0.97125   0.77414   0.13788
H          H       0.01440   0.59415   0.87211   0.13054
H          H       0.41816   0.47204   0.01628   0.12223
H          H       0.54121   0.00023   0.00764   0.11232
H          H       0.98320   0.54972   0.02888   0.10340
H          H       0.50034   0.42356   0.87721   0.13127
H          H       0.59610   0.11687   0.09151   0.11787
H          H       0.86380   0.47917   0.08042   0.12730
H          H       0.46270   0.30813   0.74142   0.15908
H          H       0.71221   0.18600   0.94140   0.15471
H          H       0.78672   0.51653   0.11950   0.16906
H          H       0.34822   0.35393   0.70506   0.13269
H          H       0.65525   0.02712   0.57566   0.11615
H          H       0.95488   0.62369   0.82571   0.11655
H          H       0.34418   0.25262   0.52999   0.10233
H          H       0.75400   0.12485   0.46161   0.08566
H          H       0.87786   0.64158   0.85570   0.09714
H          H       0.31753   0.23889   0.75597   0.11967
H          H       0.77118   0.09715   0.58115   0.10297
H          H       0.85729   0.65431   0.09758   0.11000
H          H       0.42758   0.23079   0.47960   0.11128
H          H       0.79248   0.22258   0.67922   0.11400
H          H       0.77101   0.56281   0.86365   0.10506
H          H       0.39130   0.15057   0.61964   0.17291
H          H       0.88338   0.24286   0.71259   0.16366
H          H       0.70536   0.59605   0.11381   0.13074
H          H       0.32742   0.16135   0.77178   0.13789
H          H       0.86168   0.16530   0.65280   0.14187
H          H       0.76328   0.64508   0.23346   0.13853
H          H       0.63316   0.62808   0.55370   0.12723
H          H       0.37797   0.02398   0.81039   0.12980
H          H       0.00215   0.37597   0.38222   0.13013
C          C       0.00962   0.50931   0.23550   0.09543
C          C       0.50246   0.48609   0.24027   0.09237
C          C       0.51126  -0.00035   0.36547   0.08886
C          C       0.96487   0.46908   0.15185  -0.17711
C          C       0.54779   0.47529   0.11703  -0.18111
C          C       0.51540   0.04805   0.34229  -0.18341
C          C       0.96617   0.42032   0.02638   0.01432
C          C       0.59565   0.51426   0.00827  -0.00703
C          C       0.46828   0.04886   0.32869   0.01883
C          C       0.10504   0.53924   0.28411   0.41975
C          C       0.45982   0.55416   0.38686   0.42900
C          C       0.45014   0.89705   0.40170   0.41956
C          C       0.23174   0.54978   0.31763   0.03519
C          C       0.42530   0.66202   0.43609   0.03625
C          C       0.33378   0.75362   0.36767   0.02680
C          C       0.28368   0.59892   0.33607  -0.19303
C          C       0.38020   0.65841   0.40124  -0.18892
C          C       0.33277   0.70371   0.35654  -0.17764
C          C       0.28444   0.64805   0.32207   0.31487
C          C       0.33003   0.60176   0.37881   0.34227
C          C       0.38313   0.70947   0.38429   0.32038
C          C       0.01374   0.41142   0.98602  -0.08829
C          C       0.59918   0.56659   0.02435  -0.09406
C          C       0.41462  -0.00047   0.34383  -0.09552
C          C       0.05877   0.45092   0.06710  -0.09866
C          C       0.55406   0.57805   0.14515  -0.08822
C          C       0.40976   0.95071   0.36550  -0.08965
C          C       0.05781   0.49998   0.19275  -0.07685
C          C       0.50574   0.53891   0.25469  -0.06749
C          C       0.45720   0.94967   0.37696  -0.07159
C          C       0.91928   0.37775   0.93191   0.42008
C          C       0.64214   0.49927   0.87677   0.42657
C          C       0.47518   0.10014   0.28860   0.42175
C          C       0.79620   0.37071   0.90524   0.03284
C          C       0.62259   0.37126   0.93157   0.01052
C          C       0.60434   0.21778   0.13933   0.02724
C          C       0.73645   0.34225   0.93659  -0.12371
C          C       0.64866   0.34475   0.94631  -0.13782
C          C       0.63581   0.26512   0.05462  -0.14961
C          C       0.69944   0.29085   0.01650   0.31524
C          C       0.71195   0.37044   0.89981   0.34802
C          C       0.60943   0.29028   0.01437   0.33720
C          C       0.45004   0.44114   0.34625  -0.12165
C          C       0.56372  -0.00015   0.37173  -0.12017
C          C       0.00870   0.56293   0.36389  -0.12191
C          C       0.48735   0.37392   0.32109  -0.11094
C          C       0.63632   0.10584   0.41519  -0.08606
C          C       0.90059   0.53358   0.47737  -0.09487
C          C       0.47132   0.31759   0.24927  -0.08233
C          C       0.69315   0.13695   0.32938  -0.07777
C          C       0.86812   0.55814   0.49709  -0.07605
C          C       0.41375   0.33904   0.20236   0.04062
C          C       0.66426   0.04736   0.18114   0.04558
C          C       0.95985   0.61437   0.36841   0.05475
C          C       0.39074   0.23692   0.09457  -0.06796
C          C       0.76975   0.11223   0.06919  -0.07752
C          C       0.89113   0.65206   0.43814  -0.07647
C          C       0.40944   0.19806   0.10133  -0.06341
C          C       0.81001   0.17466   0.09614  -0.07446
C          C       0.82745   0.62864   0.47033  -0.07684
C          C       0.37335   0.15331   0.18530  -0.28418
C          C       0.84917   0.19927   0.19141  -0.27528
C          C       0.79497   0.64860   0.61564  -0.27764
C          C       0.98822   0.50445   0.75287   0.09351
C          C       0.48409   0.50908   0.77911   0.08941
C          C       0.50348   0.01300   0.85529   0.08232
C          C       0.94536   0.46483   0.66249  -0.17973
C          C       0.53046   0.49869   0.66620  -0.19135
C          C       0.51260   0.06260   0.82348  -0.17236
C          C       0.95030   0.41911   0.52726   0.00928
C          C       0.58377   0.54024   0.58360   0.00374
C          C       0.46793   0.06624   0.80314   0.01590
C          C       0.08529   0.53965   0.79682   0.42994
C          C       0.44246   0.57761   0.90540   0.42235
C          C       0.43491   0.91110   0.89502   0.42695
C          C       0.22047   0.56460   0.81040   0.03306
C          C       0.41313   0.68666   0.92344   0.03448
C          C       0.31451   0.76975   0.85440   0.01366
C          C       0.27070   0.61603   0.82138  -0.19736
C          C       0.36799   0.68008   0.87891  -0.18850
C          C       0.31484   0.71985   0.83790  -0.18131
C          C       0.26693   0.66326   0.81071   0.31742
C          C       0.31999   0.62235   0.85666   0.34126
C          C       0.36675   0.72861   0.86278   0.31617
C          C      -0.00092   0.41203   0.48503  -0.07826
C          C       0.59152   0.59529   0.61464  -0.09592
C          C       0.41211   0.02012   0.82413  -0.08812
C          C       0.04299   0.45189   0.57062  -0.09899
C          C       0.54490   0.60616   0.71907  -0.09197
C          C       0.40256   0.97009   0.85262  -0.09646
C          C       0.03872   0.49851   0.70442  -0.06634
C          C       0.49120   0.56417   0.80195  -0.06374
C          C       0.44748   0.96544   0.86591  -0.07772
C          C       0.90524   0.37951   0.42619   0.41844
C          C       0.63190   0.52529   0.47584   0.41745
C          C       0.47861   0.11608   0.74535   0.42344
C          C       0.79307   0.38826   0.37875   0.04592
C          C       0.61780   0.39223   0.43478   0.02143
C          C       0.60687   0.23180   0.58810   0.03524
C          C       0.73374   0.36170   0.41311  -0.13459
C          C       0.64533   0.36374   0.43099  -0.14820
C          C       0.63491   0.28183   0.52319  -0.12949
C          C       0.69887   0.30964   0.48762   0.33886
C          C       0.70852   0.38921   0.37737   0.33379
C          C       0.60691   0.31007   0.50464   0.33465
C          C       0.42758   0.46210   0.86606  -0.12112
C          C       0.55185   0.00798   0.87092  -0.12334
C          C       0.98020   0.55177   0.90154  -0.12828
C          C       0.46356   0.39218   0.82258  -0.08485
C          C       0.62647   0.10863   0.96591  -0.10348
C          C       0.87057   0.51499   0.03905  -0.09241
C          C       0.44434   0.33507   0.75968  -0.08821
C          C       0.68357   0.14244   0.89083  -0.08496
C          C       0.83290   0.53332   0.05657  -0.05487
C          C       0.38399   0.35788   0.73723   0.05534
C          C       0.65404   0.06067   0.69410   0.03002
C          C       0.92015   0.58912   0.89817   0.03583
C          C       0.35679   0.25360   0.64365  -0.07676
C          C       0.75856   0.12889   0.59489  -0.08418
C          C       0.84782   0.62131   0.97555  -0.07237
C          C       0.38746   0.21901   0.58842  -0.07433
C          C       0.80164   0.18788   0.65636  -0.06513
C          C       0.78592   0.59556   0.97878  -0.08067
C          C       0.36774   0.17482   0.66422  -0.27146
C          C       0.85162   0.19923   0.67457  -0.28435
C          C       0.74985   0.61326   0.11503  -0.26538
Br         Br      0.70413   0.97917   0.32126  -0.34529
Br         Br      0.00433   0.70942   0.70727  -0.37420
Br         Br      0.28595   0.29962   0.46842  -0.39360
Br         Br      0.71723   0.99101   0.68122  -0.35650
Br         Br      0.02283   0.70974   0.04873  -0.37088
Br         Br      0.31302   0.36952   0.20248  -0.37249
N          N       0.87640   0.39413   0.97016  -0.25629
N          N       0.62516   0.44115   0.85659  -0.17528
N          N       0.53404   0.14167   0.24977  -0.25083
N          N       0.19028   0.55371   0.29749   0.16647
N          N       0.42556   0.61647   0.45526   0.08999
N          N       0.37784   0.80471   0.41427   0.09007
N          N       0.15347   0.52590   0.20665  -0.20889
N          N       0.46213   0.60022   0.33969  -0.20644
N          N       0.40418   0.84596   0.33341  -0.14566
N          N       0.82965   0.35341   0.92167   0.00288
N          N       0.64985   0.42768   0.91938   0.01340
N          N       0.54631   0.18277   0.17667  -0.04144
N          N       0.45088   0.38649   0.29063   0.06035
N          N       0.61889   0.05013   0.31953   0.06259
N          N       0.95748   0.56863   0.39325   0.06047
N          N       0.42566   0.29684   0.17577   0.06564
N          N       0.70971   0.09973   0.18491   0.05993
N          N       0.90567   0.60808   0.42799   0.05961
N          N       0.86669   0.40151   0.46083  -0.23907
N          N       0.61019   0.46563   0.43432  -0.24148
N          N       0.53872   0.15452   0.69413  -0.25124
N          N       0.17406   0.56322   0.80336   0.14342
N          N       0.41306   0.64208   0.94890   0.08944
N          N       0.35960   0.81988   0.89660   0.11781
N          N       0.13684   0.53145   0.71397  -0.20579
N          N       0.45089   0.62583   0.85187  -0.18967
N          N       0.38769   0.86293   0.82371  -0.17582
N          N       0.82323   0.36678   0.39217   0.04779
N          N       0.64470   0.44815   0.42804  -0.00302
N          N       0.54868   0.19725   0.63737  -0.01879
N          N       0.42620   0.40597   0.80455   0.06567
N          N       0.60886   0.05811   0.84117   0.06805
N          N       0.92464   0.55042   0.94002   0.06249
N          N       0.39462   0.31454   0.70831   0.06499
N          N       0.69977   0.11186   0.72206   0.06940
N          N       0.86494   0.57978   0.96899   0.05904
O          O       0.10626   0.58023   0.40651  -0.37989
O          O       0.42365   0.52981   0.51441  -0.36478
O          O       0.48444   0.89443   0.44935  -0.38215
O          O       0.24198   0.64114   0.28279  -0.31592
O          O       0.32918   0.56005   0.40022  -0.33901
O          O       0.42646   0.75753   0.39471  -0.34114
O          O       0.92177   0.33580   0.81998  -0.41606
O          O       0.68672   0.53147   0.78200  -0.39326
O          O       0.43341   0.10186   0.28395  -0.42256
O          O       0.72173   0.26873   0.05063  -0.42410
O          O       0.74314   0.41452   0.83237  -0.40858
O          O       0.55596   0.26953   0.04613  -0.41763
O          O       0.08331   0.57858   0.92492  -0.38899
O          O       0.39794   0.54863   0.00832  -0.36137
O          O       0.46495   0.90479   0.95096  -0.37721
O          O       0.22178   0.65360   0.78174  -0.32171
O          O       0.32279   0.58217   0.87452  -0.34027
O          O       0.40811   0.77825   0.87640  -0.31718
O          O       0.90442   0.33610   0.31737  -0.41041
O          O       0.68283   0.56123   0.43110  -0.41359
O          O       0.43913   0.11954   0.73160  -0.41639
O          O       0.72240   0.28906   0.52229  -0.39429
O          O       0.73999   0.43299   0.30768  -0.41624
O          O       0.55342   0.29181   0.55790  -0.40956

