data_crystal

_audit_creation_method 'AiiDA-DDEC plugin'

_cell_length_a        37.13361
_cell_length_b        36.84491
_cell_length_c         7.84993

_cell_angle_alpha     110.19708
_cell_angle_beta     64.94447
_cell_angle_gamma     120.73785

_symmetry_space_group_name_Hall 'P 1'
_symmetry_space_group_name_H-M  'P 1'

loop_
_symmetry_equiv_pos_as_xyz
 'x,y,z'

loop_
_atom_site_label
_atom_site_type_symbol
_atom_site_fract_x
_atom_site_fract_y
_atom_site_fract_z
_atom_site_charge
V          V       0.52266   0.57516   0.32388   1.08272
V          V       0.11320  -0.00004   0.23022   1.09365
V          V       0.95157   0.43363   0.29415   1.09683
V          V       0.51906   0.57657   0.97870   1.09212
V          V       0.10808   0.99351   0.58552   1.07161
V          V       0.94174   0.41885   0.94390   1.10670
H          H       0.03298   0.11010   0.35805   0.05570
H          H       0.17385   0.17338   0.27751   0.12559
H          H       0.20958   0.25227   0.27290   0.11132
H          H       0.06142   0.16138   0.18840   0.10446
H          H       0.09687   0.23966   0.18707   0.11107
H          H       0.10170   0.32249   0.13737   0.11425
H          H       0.20441   0.44336   0.27466   0.11129
H          H       0.16411   0.48146   0.28005   0.10098
H          H       0.06077   0.36044   0.14346   0.12688
H          H       0.13799   0.49635   0.11340   0.05511
H          H       0.13597   0.55467   0.08065   0.11190
H          H       0.09781   0.59511   0.09574   0.11354
H          H       0.28248   0.32981   0.29803   0.11309
H          H       0.36003   0.36755   0.30505   0.10842
H          H       0.37249   0.48174   0.20521   0.12480
H          H       0.29387   0.44365   0.20469   0.11221
H          H       0.43139   0.39759   0.12760   0.06510
H          H       0.50129   0.40074   0.05734   0.11277
H          H       0.57901   0.43935   0.05296   0.11016
H          H       0.64054   0.49966   0.10736   0.05978
H          H       0.68798   0.52478   0.27652   0.10104
H          H       0.76579   0.56311   0.27878   0.11153
H          H       0.77731   0.67675   0.18198   0.11260
H          H       0.69864   0.63870   0.18259   0.12625
H          H       0.85414   0.56112   0.20635   0.11513
H          H       0.89499   0.52289   0.19719   0.12520
H          H       0.95604   0.68148   0.35686   0.11578
H          H       0.99579   0.64367   0.35636   0.11220
H          H       0.96372   0.75855   0.28985   0.11279
H          H       0.89815   0.83866   0.21643   0.10524
H          H       0.85659   0.76015   0.21670   0.11307
H          H       0.00618   0.83794   0.29037   0.12885
H          H       0.92755   0.90343   0.37175   0.05888
H          H       0.03362   0.60300   0.16136   0.06717
H          H       0.93129   0.96960   0.39776   0.11016
H          H       0.97152   0.04727   0.38986   0.10966
H          H       0.02369   0.10112   0.85756   0.06328
H          H       0.16567   0.15806   0.76885   0.12892
H          H       0.20524   0.23753   0.77000   0.11451
H          H       0.05570   0.15434   0.69376   0.10641
H          H       0.09549   0.23293   0.69124   0.11048
H          H       0.09780   0.30882   0.63654   0.11461
H          H       0.20006   0.43094   0.76748   0.11186
H          H       0.15797   0.46764   0.77782   0.10224
H          H       0.05509   0.34549   0.64880   0.12738
H          H       0.12848   0.48316   0.63836   0.05671
H          H       0.12217   0.54102   0.62104   0.11127
H          H       0.07940   0.57679   0.63918   0.11000
H          H       0.28463   0.32429   0.79725   0.11413
H          H       0.36154   0.36758   0.81292   0.10633
H          H       0.36455   0.47711   0.71468   0.13282
H          H       0.28687   0.43324   0.70198   0.11361
H          H       0.43192   0.40267   0.62299   0.06109
H          H       0.49746   0.40418   0.57214   0.10956
H          H       0.57571   0.44066   0.55972   0.11031
H          H       0.63960   0.50132   0.59329   0.06123
H          H       0.68376   0.52155   0.77323   0.10207
H          H       0.76209   0.55636   0.77013   0.11304
H          H       0.77853   0.67387   0.69017   0.11295
H          H       0.69957   0.63939   0.69611   0.12919
H          H       0.84840   0.54985   0.67749   0.11025
H          H       0.88241   0.50637   0.68342   0.12951
H          H       0.95092   0.66496   0.85620   0.11262
H          H       0.98347   0.62215   0.87318   0.10737
H          H       0.96442   0.75098   0.79308   0.11608
H          H       0.89763   0.82803   0.70438   0.10972
H          H       0.85675   0.74995   0.71272   0.11086
H          H       0.00578   0.83033   0.79129   0.13097
H          H       0.92407   0.89202   0.86909   0.05912
H          H       0.01722   0.58008   0.68504   0.05977
H          H       0.92423   0.95608   0.88512   0.11024
H          H       0.96046   0.03355   0.87842   0.11235
C          C       0.88531   0.57872   0.23722  -0.08202
C          C       0.94327   0.64686   0.31943  -0.09497
C          C       0.03256   0.54803   0.21062  -0.00176
C          C       0.00901   0.50803   0.27334   0.10647
C          C       0.07882   0.56415   0.14282  -0.14153
C          C       0.03058   0.48392   0.25881   0.14614
C          C       0.10018   0.54129   0.13328  -0.13245
C          C       0.07712   0.50052   0.18749  -0.00484
C          C       0.10203   0.47869   0.17148   0.07826
C          C       0.15085   0.44671   0.24518  -0.18838
C          C       0.09231   0.37810   0.17116  -0.14218
C          C       0.90777   0.55756   0.23238  -0.14455
C          C       0.96581   0.62580   0.31551  -0.17924
C          C       0.94879   0.58076   0.26698   0.20579
C          C       0.44152   0.43183   0.18926   0.07272
C          C       0.01124   0.57194   0.21098   0.07511
C          C       0.57756   0.50042   0.18728  -0.00489
C          C       0.48645   0.45521   0.19715   0.00067
C          C       0.51454   0.43458   0.11812  -0.14031
C          C       0.50449   0.49886   0.27954   0.11316
C          C       0.55833   0.45638   0.11471  -0.13114
C          C       0.54968   0.52169   0.27135   0.14470
C          C       0.62388   0.52105   0.17453   0.07179
C          C       0.17710   0.23195   0.25551  -0.09192
C          C       0.15528   0.25097   0.23218  -0.00635
C          C       0.95465   0.84373   0.25960   0.20184
C          C       0.75730   0.64355   0.20291  -0.09311
C          C       0.91217   0.82155   0.23819  -0.18149
C          C       0.75100   0.57907   0.25433  -0.08126
C          C       0.97341   0.82045   0.27450  -0.14972
C          C       0.71381   0.62262   0.20359  -0.14778
C          C       0.88897   0.77763   0.23643  -0.08967
C          C       0.70764   0.55779   0.25208  -0.18548
C          C       0.94995   0.77671   0.27457  -0.08863
C          C       0.68821   0.57933   0.22795   0.21073
C          C       0.90744   0.75470   0.25572  -0.00478
C          C       0.90307   0.62366   0.27802  -0.00428
C          C       0.17746   0.29727   0.22761   0.37110
C          C       0.34628   0.38373   0.27488  -0.17729
C          C       0.17826   0.35846   0.21344   0.37262
C          C       0.35237   0.44852   0.22569  -0.14832
C          C       0.23821   0.36085   0.24031   0.36953
C          C       0.37208   0.42671   0.24514   0.20286
C          C       0.88305   0.70822   0.25658   0.37798
C          C       0.15551   0.38069   0.20550  -0.00239
C          C       0.05906   0.02484   0.24752   0.15561
C          C       0.88069   0.64622   0.27019   0.37294
C          C       0.17326   0.42571   0.24337  -0.08364
C          C       0.03571   0.97990   0.24775   0.13755
C          C       0.82155   0.64556   0.24336   0.37409
C          C       0.11496   0.35723   0.16752  -0.08906
C          C       0.98923   0.95920   0.30449   0.00252
C          C       0.28370   0.38425   0.24879  -0.00013
C          C       0.15752   0.18838   0.25750  -0.14809
C          C       0.96709   0.98494   0.35610  -0.14183
C          C       0.96345   0.91378   0.31287   0.07584
C          C       0.10990   0.42316   0.20889   0.20694
C          C       0.98969   0.02857   0.35273  -0.13786
C          C       0.77636   0.62229   0.23070  -0.00504
C          C       0.03611   0.05006   0.29995  -0.00529
C          C       0.11312   0.22499   0.21017  -0.08882
C          C       0.11505   0.16226   0.23847   0.20750
C          C       0.30281   0.36287   0.27528  -0.09174
C          C       0.05653   0.09588   0.30091   0.07946
C          C       0.09327   0.18125   0.21309  -0.18180
C          C       0.30888   0.42747   0.22586  -0.08767
C          C       0.87839   0.56508   0.71658  -0.08919
C          C       0.93671   0.63033   0.81497  -0.09265
C          C       0.01585   0.52617   0.74078  -0.00441
C          C       0.99429   0.48426   0.78400   0.15762
C          C       0.06233   0.54535   0.68079  -0.13639
C          C       0.01928   0.46303   0.76347   0.13653
C          C       0.08637   0.52512   0.66882  -0.13911
C          C       0.06572   0.48354   0.71158   0.00689
C          C       0.09278   0.46378   0.69219   0.08225
C          C       0.14533   0.43295   0.74264  -0.18273
C          C       0.08701   0.36360   0.67308  -0.15278
C          C       0.89708   0.54108   0.72028  -0.14516
C          C       0.95529   0.60639   0.82050  -0.18289
C          C       0.93602   0.56137   0.77080   0.20766
C          C       0.44006   0.43598   0.69759   0.07695
C          C       0.99423   0.54934   0.73714   0.08167
C          C       0.57683   0.50305   0.68132   0.00412
C          C       0.48532   0.46023   0.70176  -0.00705
C          C       0.51219   0.43831   0.62591  -0.13068
C          C       0.50540   0.50486   0.76709   0.14988
C          C       0.55618   0.45879   0.61737  -0.14115
C          C       0.55092   0.52594   0.75250   0.12900
C          C       0.62292   0.52260   0.66922   0.07468
C          C       0.17257   0.21897   0.75326  -0.09120
C          C       0.15248   0.24013   0.73286  -0.00539
C          C       0.95389   0.83486   0.75674   0.20086
C          C       0.75735   0.64058   0.70801  -0.09152
C          C       0.91171   0.81184   0.73240  -0.18261
C          C       0.74824   0.57381   0.74981  -0.08441
C          C       0.97306   0.81230   0.77483  -0.14885
C          C       0.71380   0.62171   0.71190  -0.15097
C          C       0.88900   0.76809   0.73375  -0.08888
C          C       0.70480   0.55458   0.75051  -0.18778
C          C       0.95014   0.76847   0.77622  -0.09752
C          C       0.68694   0.57835   0.73240   0.20879
C          C       0.90768   0.74581   0.75657  -0.00497
C          C       0.89805   0.61004   0.76331  -0.00476
C          C       0.17557   0.28649   0.72783   0.37458
C          C       0.34586   0.38156   0.78128  -0.18358
C          C       0.17512   0.34672   0.71059   0.37383
C          C       0.34671   0.44365   0.73246  -0.15470
C          C       0.23595   0.35048   0.73579   0.37538
C          C       0.36867   0.42490   0.75723   0.20252
C          C       0.88286   0.69928   0.75617   0.37680
C          C       0.15163   0.36783   0.70077  -0.00705
C          C       0.05068   0.01808   0.77364   0.10454
C          C       0.87801   0.63532   0.75986   0.37231
C          C       0.16880   0.41275   0.73728  -0.08157
C          C       0.03013   0.97302   0.76908   0.13394
C          C       0.82017   0.63816   0.73903   0.37201
C          C       0.11073   0.34350   0.66566  -0.09154
C          C       0.98386   0.94971   0.80810  -0.00008
C          C       0.28123   0.37600   0.74668  -0.01129
C          C       0.15086   0.17510   0.75260  -0.14324
C          C       0.95988   0.97323   0.85159  -0.13503
C          C       0.96017   0.90390   0.81131   0.07730
C          C       0.10378   0.40862   0.71267   0.21146
C          C       0.98023   0.01699   0.84959  -0.13515
C          C       0.77495   0.61706   0.72909  -0.00518
C          C       0.02621   0.04065   0.80785  -0.00125
C          C       0.11002   0.21629   0.71255  -0.08588
C          C       0.10792   0.15136   0.73725   0.20397
C          C       0.30272   0.35749   0.77575  -0.09244
C          C       0.04656   0.08623   0.80367   0.07129
C          C       0.08788   0.17256   0.71561  -0.18509
C          C       0.30380   0.41939   0.72547  -0.08645
N          N       0.96891   0.55696   0.26000  -0.23702
N          N       0.41568   0.45017   0.24488  -0.23720
N          N       0.21939   0.38245   0.22739  -0.41074
N          N       0.15613   0.31565   0.20942  -0.41139
N          N       0.21836   0.31857   0.24371  -0.40962
N          N       0.84199   0.68816   0.24277  -0.41769
N          N       0.90366   0.68877   0.27182  -0.41481
N          N       0.83950   0.62313   0.25658  -0.41006
N          N       0.08413   0.44142   0.21782  -0.23588
N          N       0.64444   0.56132   0.23392  -0.23324
N          N       0.98089   0.88743   0.25834  -0.23279
N          N       0.09846   0.11879   0.24138  -0.23811
N          N       0.95221   0.53542   0.78007  -0.23258
N          N       0.41142   0.45144   0.76766  -0.23155
N          N       0.21638   0.37119   0.72161  -0.41342
N          N       0.15336   0.30427   0.71267  -0.41489
N          N       0.21698   0.30807   0.73896  -0.41973
N          N       0.84197   0.68076   0.74190  -0.41613
N          N       0.90221   0.67810   0.76821  -0.41665
N          N       0.83684   0.61395   0.74634  -0.41272
N          N       0.07648   0.42597   0.73021  -0.24208
N          N       0.64327   0.56197   0.74037  -0.23296
N          N       0.97918   0.87880   0.75473  -0.23976
N          N       0.08874   0.10776   0.74227  -0.23692
O          O       0.48037   0.52236   0.36882  -0.39983
O          O       0.96405   0.48971   0.35176  -0.41299
O          O       0.10377   0.04041   0.18999  -0.40060
O          O       0.56288   0.56390   0.35048  -0.39065
O          O       0.00369   0.44564   0.32202  -0.39754
O          O       0.06160   0.95885   0.18987  -0.40831
O          O       0.51136   0.61379   0.45796  -0.52532
O          O       0.90541   0.40342   0.41868  -0.53361
O          O       0.15548   0.99220   0.09635  -0.51929
O          O       0.48435   0.53080   0.83922  -0.39886
O          O       0.94981   0.46042   0.83369  -0.40648
O          O       0.09552   0.03756   0.73910  -0.39168
O          O       0.56743   0.56945   0.81087  -0.40477
O          O       0.99507   0.42112   0.79109  -0.40992
O          O       0.05780   0.95495   0.72719  -0.38740
O          O       0.52095   0.62243   0.01421  -0.52260
O          O       0.90169   0.37293   0.93545  -0.53686
O          O       0.15477   0.99697   0.55366  -0.52228

