data_crystal

_audit_creation_method 'AiiDA-DDEC plugin'

_cell_length_a        39.09741
_cell_length_b        40.01744
_cell_length_c         7.85590

_cell_angle_alpha     89.29513
_cell_angle_beta     103.61809
_cell_angle_gamma     119.75447

_symmetry_space_group_name_Hall 'P 1'
_symmetry_space_group_name_H-M  'P 1'

loop_
_symmetry_equiv_pos_as_xyz
 'x,y,z'

loop_
_atom_site_label
_atom_site_type_symbol
_atom_site_fract_x
_atom_site_fract_y
_atom_site_fract_z
_atom_site_charge
H          H       0.53716   0.56860   0.27466   0.14524
H          H       0.43027   0.96001   0.11997   0.14581
H          H       0.05551   0.48662   0.20603   0.15065
H          H       0.47460   0.43958   0.78654   0.14560
H          H       0.56558   0.03794   0.85190   0.14546
H          H       0.93399   0.51251   0.82560   0.14465
H          H       0.68071   0.42750   0.04772   0.11449
H          H       0.57663   0.24763   0.13251   0.11767
H          H       0.72804   0.30853   0.83820   0.11404
H          H       0.32609   0.57553   0.02734   0.11309
H          H       0.41723   0.74983   0.83789   0.11555
H          H       0.23547   0.66775   0.87515   0.11533
H          H       0.64194   0.46225   0.03200   0.11848
H          H       0.53933   0.17510   0.11974   0.12393
H          H       0.79530   0.33612   0.76226   0.12336
H          H       0.36692   0.54256   0.06226   0.11872
H          H       0.45389   0.82209   0.85092   0.12336
H          H       0.16105   0.62546   0.86283   0.11993
H          H       0.41984   0.67338   0.86112   0.11721
H          H       0.32290   0.75193   0.01865   0.11610
H          H       0.26040   0.58430   0.13601   0.11878
H          H       0.58111   0.32525   0.15975   0.11323
H          H       0.67166   0.24474   0.96238   0.11389
H          H       0.76122   0.42247   0.04440   0.11568
H          H       0.45975   0.63949   0.88348   0.11969
H          H       0.36154   0.82444   0.05145   0.11663
H          H       0.18637   0.54264   0.12971   0.12235
H          H       0.54280   0.36055   0.15286   0.12120
H          H       0.63332   0.17212   0.93740   0.11686
H          H       0.82934   0.44987   0.97498   0.11580
H          H       0.51935   0.57908   0.60183   0.14857
H          H       0.42206   0.93542   0.46291   0.14865
H          H       0.06057   0.49037   0.67758   0.14770
H          H       0.49788   0.43229   0.47375   0.14883
H          H       0.57503   0.06590   0.51214   0.14740
H          H       0.93771   0.52058   0.35646   0.14422
H          H       0.68196   0.42889   0.57338   0.11257
H          H       0.57090   0.25138   0.65076   0.11342
H          H       0.72974   0.31184   0.35836   0.11746
H          H       0.33534   0.57991   0.52101   0.11509
H          H       0.42772   0.75113   0.31791   0.11381
H          H       0.24689   0.67487   0.35960   0.11409
H          H       0.65336   0.47123   0.61505   0.12020
H          H       0.53567   0.18113   0.68529   0.11718
H          H       0.79853   0.34370   0.30087   0.12501
H          H       0.37052   0.54210   0.51008   0.12086
H          H       0.46271   0.82199   0.29075   0.11759
H          H       0.17325   0.63723   0.35552   0.12108
H          H       0.42917   0.67568   0.34435   0.11293
H          H       0.33713   0.75917   0.50437   0.11657
H          H       0.26575   0.58770   0.61566   0.11798
H          H       0.57703   0.33076   0.67612   0.11310
H          H       0.65991   0.24054   0.46400   0.11023
H          H       0.75170   0.42289   0.54349   0.11157
H          H       0.46309   0.63756   0.32289   0.11704
H          H       0.37400   0.83081   0.49470   0.12274
H          H       0.19304   0.55152   0.62649   0.12256
H          H       0.54889   0.37284   0.72422   0.11655
H          H       0.62385   0.16984   0.48902   0.12005
H          H       0.82198   0.45470   0.49952   0.11706
C          C       0.74103   0.36395   0.94630   0.00029
C          C       0.63261   0.37380   0.09721  -0.00883
C          C       0.62607   0.25040   0.04536  -0.01421
C          C       0.25190   0.62788   0.00218  -0.02089
C          C       0.37108   0.62707   0.94841  -0.00650
C          C       0.36798   0.74643   0.92980  -0.01050
C          C       0.64749   0.29256   0.04306   0.37451
C          C       0.70188   0.34683   0.99289   0.37152
C          C       0.65189   0.35130   0.07269   0.37542
C          C       0.34716   0.70421   0.93357   0.37718
C          C       0.29374   0.64936   0.98484   0.37579
C          C       0.34933   0.64831   0.94982   0.37185
C          C       0.65048   0.41310   0.07054  -0.08856
C          C       0.58867   0.23078   0.09006  -0.08514
C          C       0.75055   0.33930   0.86834  -0.09193
C          C       0.35559   0.58936  -0.00239  -0.09242
C          C       0.40516   0.76638   0.88310  -0.08615
C          C       0.22432   0.64041   0.93098  -0.08013
C          C       0.62874   0.43230   0.05956  -0.17112
C          C       0.56777   0.19071   0.08142  -0.17475
C          C       0.78759   0.35436   0.82672  -0.16204
C          C       0.37848   0.57115   0.01855  -0.17116
C          C       0.42588   0.80649   0.89265  -0.17543
C          C       0.18326   0.61724   0.92478  -0.19898
C          C       0.40870   0.64487   0.90549  -0.09430
C          C       0.35187   0.76774   0.98467  -0.08838
C          C       0.23831   0.59288   0.07650  -0.08332
C          C       0.59394   0.35517   0.13163  -0.08977
C          C       0.64251   0.22901   0.99482  -0.08840
C          C       0.76921   0.40400   0.98314  -0.08526
C          C       0.43090   0.62627   0.91881  -0.16425
C          C       0.37349   0.80797   0.00443  -0.17562
C          C       0.19748   0.56983   0.07327  -0.18750
C          C       0.57267   0.37455   0.12663  -0.16918
C          C       0.62108   0.18888   0.97875  -0.17762
C          C       0.80684   0.41904   0.94610  -0.17844
C          C       0.58852   0.41258   0.07797   0.22662
C          C       0.58281   0.16919   0.01744   0.22400
C          C       0.81598   0.39408   0.86847   0.21546
C          C       0.41749   0.59015   0.98645   0.22370
C          C       0.41147   0.82799   0.96268   0.22238
C          C       0.16981   0.58165   0.99338   0.21737
C          C       0.45611   0.55936   0.12494   0.14549
C          C       0.44522   0.89587   0.08627   0.14899
C          C       0.10132   0.55053   0.03286   0.14495
C          C       0.55480   0.44765   0.94563   0.14545
C          C       0.55096   0.10240   0.89304   0.14827
C          C       0.88637   0.43544   0.90156   0.15671
C          C       0.49525   0.46163   0.89779  -0.19478
C          C       0.54147   0.03364   0.91054  -0.19946
C          C       0.94848   0.50003   0.91799  -0.22074
C          C       0.51618   0.54643   0.16446  -0.19801
C          C       0.45404   0.96405   0.05951  -0.20038
C          C       0.04142   0.50174   0.13274  -0.21328
C          C       0.48946   0.49099   0.96034  -0.02154
C          C       0.51225   0.99767   0.95032  -0.02122
C          C       0.98955   0.51456   0.98275  -0.00131
C          C       0.52206   0.51723   0.10127  -0.02407
C          C       0.48319  -0.00002   0.01935  -0.02179
C          C       0.00071   0.48996   0.08895   0.00028
C          C       0.47888   0.54204   0.07475  -0.04839
C          C       0.46148   0.93475   0.02481  -0.05052
C          C       0.06384   0.53591   0.05369  -0.06612
C          C       0.53208   0.46553   0.99112  -0.04877
C          C       0.53437   0.06303   0.94812  -0.05162
C          C       0.92539   0.46182   0.96745  -0.08426
C          C       0.73635   0.36521   0.45760  -0.00159
C          C       0.63119   0.37724   0.62119  -0.00572
C          C       0.61851   0.25101   0.56029  -0.01914
C          C       0.26122   0.63367   0.48646  -0.01984
C          C       0.37967   0.62986   0.42985  -0.00362
C          C       0.37956   0.75044   0.40799  -0.01696
C          C       0.64052   0.29290   0.54677   0.37338
C          C       0.69620   0.34662   0.49853   0.36937
C          C       0.64702   0.35251   0.58102   0.37929
C          C       0.35847   0.70860   0.42314   0.37578
C          C       0.30351   0.65406   0.47019   0.37150
C          C       0.35908   0.65197   0.43914   0.37325
C          C       0.65312   0.41727   0.60796  -0.08850
C          C       0.58271   0.23341   0.61858  -0.08417
C          C       0.75001   0.34304   0.38941  -0.09030
C          C       0.36301   0.59192   0.47649  -0.09375
C          C       0.41567   0.76872   0.35214  -0.08459
C          C       0.23486   0.64785   0.41785  -0.07942
C          C       0.63741   0.44062   0.63159  -0.16504
C          C       0.56310   0.19418   0.63912  -0.18708
C          C       0.78849   0.36071   0.35875  -0.16581
C          C       0.38218   0.57098   0.46948  -0.16210
C          C       0.43515   0.80818   0.33634  -0.18414
C          C       0.19387   0.62715   0.41712  -0.19479
C          C       0.41630   0.64619   0.37814  -0.09064
C          C       0.36439   0.77324   0.45651  -0.08611
C          C       0.24546   0.59862   0.56077  -0.08507
C          C       0.59361   0.36160   0.66412  -0.08752
C          C       0.63310   0.22737   0.51508  -0.08418
C          C       0.76249   0.40575   0.49273  -0.08114
C          C       0.43503   0.62487   0.36462  -0.17021
C          C       0.38456   0.81286   0.44949  -0.18310
C          C       0.20488   0.57827   0.56652  -0.18645
C          C       0.57808   0.38505   0.69259  -0.16832
C          C       0.61321   0.18806   0.53015  -0.18560
C          C       0.80162   0.42349   0.46824  -0.18141
C          C       0.59979   0.42508   0.67686   0.22609
C          C       0.57857   0.17078   0.59880   0.23316
C          C       0.81525   0.40097   0.40314   0.21650
C          C       0.41754   0.58636   0.40628   0.22418
C          C       0.41936   0.83078   0.38253   0.22865
C          C       0.17838   0.59205   0.49202   0.21739
C          C       0.45056   0.55290   0.31181   0.14666
C          C       0.45067   0.89697   0.28785   0.15738
C          C       0.10752   0.55914   0.53186   0.15198
C          C       0.56520   0.45743   0.76816   0.15123
C          C       0.54664   0.10358   0.69248   0.16183
C          C       0.88817   0.44338   0.43758   0.14993
C          C       0.51213   0.46212   0.53190  -0.20551
C          C       0.54353   0.04866   0.51814  -0.20176
C          C       0.95219   0.50611   0.43327  -0.21818
C          C       0.50499   0.54910   0.54538  -0.20324
C          C       0.45346   0.95252   0.45554  -0.20515
C          C       0.04590   0.50557   0.60995  -0.21440
C          C       0.49648   0.48723   0.48859  -0.02292
C          C       0.51768   0.00809   0.46945  -0.02386
C          C       0.99343   0.51942   0.48274  -0.00170
C          C       0.52066   0.52400   0.58878  -0.02375
C          C       0.47909   0.99317   0.50151  -0.01902
C          C       0.00499   0.49358   0.57347  -0.00081
C          C       0.46972   0.53157   0.40849  -0.02672
C          C       0.47229   0.93700   0.38302  -0.03225
C          C       0.06846   0.54144   0.54171  -0.06664
C          C       0.54714   0.47951   0.67027  -0.03088
C          C       0.52474   0.06412   0.59132  -0.03793
C          C       0.92871   0.46757   0.47954  -0.07783
S          S       0.45246   0.50390   0.90169   0.12690
S          S       0.50200   0.95040   0.92718   0.12590
S          S       0.03259   0.55495   0.94687   0.08766
S          S       0.55851   0.50369   0.16369   0.12541
S          S       0.49392   0.04733   0.04626   0.12442
S          S       0.95770   0.44867   0.11846   0.09968
S          S       0.45335   0.48326   0.34420   0.11654
S          S       0.52269   0.97127   0.38725   0.12044
S          S       0.03621   0.56045   0.44715   0.08411
S          S       0.56330   0.52764   0.73635   0.11712
S          S       0.47426   0.02989   0.58587   0.12152
S          S       0.96208   0.45193   0.60354   0.10469
N          N       0.63084   0.31285   0.08361  -0.41445
N          N       0.68254   0.30819   0.99427  -0.41809
N          N       0.68811   0.36991   0.03145  -0.41887
N          N       0.36744   0.68570   0.91807  -0.42050
N          N       0.30962   0.68701   0.96090  -0.41794
N          N       0.31304   0.62918   0.98836  -0.41927
N          N       0.56384   0.42844   0.06466  -0.28828
N          N       0.56242   0.12964   0.01686  -0.27110
N          N       0.85308   0.40747   0.82361  -0.22355
N          N       0.44305   0.57530   0.00136  -0.29008
N          N       0.43220   0.86762   0.96504  -0.26780
N          N       0.12807   0.55571   0.96211  -0.19330
N          N       0.62454   0.31404   0.58661  -0.42085
N          N       0.67591   0.30779   0.49880  -0.41897
N          N       0.68310   0.37014   0.53912  -0.42119
N          N       0.37844   0.68955   0.41216  -0.42230
N          N       0.32067   0.69200   0.44817  -0.41820
N          N       0.32207   0.63311   0.47259  -0.42147
N          N       0.58511   0.44974   0.68057  -0.27513
N          N       0.55842   0.13123   0.59592  -0.24945
N          N       0.85332   0.41693   0.36528  -0.19868
N          N       0.43357   0.56270   0.40813  -0.27712
N          N       0.43913   0.87044   0.39031  -0.25512
N          N       0.13671   0.56891   0.47151  -0.16556

