data_crystal

_audit_creation_method 'AiiDA-DDEC plugin'

_cell_length_a        42.32856
_cell_length_b        42.63758
_cell_length_c         8.08188

_cell_angle_alpha     84.20945
_cell_angle_beta     121.20478
_cell_angle_gamma     120.16887

_symmetry_space_group_name_Hall 'P 1'
_symmetry_space_group_name_H-M  'P 1'

loop_
_symmetry_equiv_pos_as_xyz
 'x,y,z'

loop_
_atom_site_label
_atom_site_type_symbol
_atom_site_fract_x
_atom_site_fract_y
_atom_site_fract_z
_atom_site_charge
H          H       0.49972   0.55532   0.01007   0.13282
H          H       0.44389   0.94208   0.99234   0.13511
H          H       0.05393   0.50402   0.96458   0.13549
H          H       0.50266   0.44460   0.01318   0.13303
H          H       0.55984   0.05975   0.04832   0.13424
H          H       0.94355   0.49935   0.01478   0.13778
H          H       0.69140   0.42713   0.99439   0.11565
H          H       0.57066   0.26284   0.00823   0.11494
H          H       0.73230   0.30554   0.96828   0.11537
H          H       0.31041   0.57303   0.01262   0.11620
H          H       0.42908   0.73722   0.98069   0.11512
H          H       0.26332   0.69299   0.98064   0.11646
H          H       0.66835   0.47071  -0.00092   0.12824
H          H       0.52820   0.19628   0.01684   0.12782
H          H       0.80075   0.33040   0.97460   0.12777
H          H       0.33728   0.53114   0.03717   0.12841
H          H       0.47173   0.80406   0.97468   0.12759
H          H       0.19511   0.66890   0.97532   0.12982
H          H       0.41777   0.66224   0.99341   0.11610
H          H       0.34069   0.75609   0.00303   0.11752
H          H       0.24770   0.58569   0.00994   0.11687
H          H       0.58275   0.33761   0.00381   0.11644
H          H       0.65791   0.24332   0.98145   0.11457
H          H       0.75541   0.41531   0.01324   0.11542
H          H       0.44475   0.62056   0.01569   0.12655
H          H       0.38302   0.82313  -0.00163   0.12822
H          H       0.17927   0.56090   0.00384   0.12984
H          H       0.55906   0.38062   0.00751   0.12688
H          H       0.61586   0.17651   0.98908   0.12768
H          H       0.82437   0.44084   0.02247   0.12934
H          H       0.50065   0.55506   0.51148   0.13305
H          H       0.44242   0.94110   0.50635   0.13401
H          H       0.05505   0.50228   0.46871   0.13603
H          H       0.49875   0.44210   0.50599   0.13422
H          H       0.55273   0.05827   0.52261   0.13204
H          H       0.94509   0.49720   0.52091   0.13658
H          H       0.68968   0.42581   0.49015   0.11413
H          H       0.57065   0.26281   0.50581   0.11535
H          H       0.73178   0.30388   0.46569   0.11669
H          H       0.31229   0.57428   0.52872   0.11614
H          H       0.42915   0.73717   0.48014   0.11602
H          H       0.26359   0.69420   0.48349   0.11611
H          H       0.66433   0.46780   0.48914   0.12765
H          H       0.52518   0.19607   0.50238   0.12741
H          H       0.80028   0.32842   0.47323   0.12828
H          H       0.33926   0.53254   0.55164   0.12736
H          H       0.47291   0.80422   0.48104   0.12604
H          H       0.19463   0.66988   0.47146   0.12663
H          H       0.41562   0.66211   0.47861   0.11542
H          H       0.34087   0.75661   0.49921   0.11661
H          H       0.24712   0.58652   0.50711   0.11788
H          H       0.58294   0.33492   0.50629   0.11513
H          H       0.65775   0.24078   0.49307   0.11775
H          H       0.75571   0.41393   0.51340   0.11865
H          H       0.44243   0.62051   0.49704   0.12638
H          H       0.38431   0.82385   0.50094   0.12718
H          H       0.17827   0.56162   0.49677   0.12990
H          H       0.55692   0.37629   0.50501   0.12764
H          H       0.61293   0.17388   0.49190   0.12713
H          H       0.82454   0.43907   0.52297   0.12949
C          C       0.51796   0.50178   0.00070   0.07117
C          C       0.50002   0.01680   0.03031   0.07621
C          C       0.98382   0.48392   0.99247   0.06624
C          C       0.48126   0.49713  -0.00037   0.06923
C          C       0.50475   0.98555   0.01977   0.07541
C          C       0.01504   0.52064   0.99102   0.06708
C          C       0.54989   0.53582   0.99464  -0.28429
C          C       0.46387   0.01344   0.01927  -0.26649
C          C       0.98574   0.45188   0.98358  -0.28919
C          C       0.44813   0.46281  -0.00306  -0.28130
C          C       0.54048   0.98888   0.02639  -0.26567
C          C       0.01393   0.55304   0.00252  -0.29382
C          C       0.73972   0.35893   0.99017  -0.01300
C          C       0.63852   0.37974  -0.00158  -0.01303
C          C       0.61687   0.25721   0.99433  -0.01002
C          C       0.25956   0.64077   0.99509  -0.01515
C          C       0.36248   0.62035   0.00240  -0.01292
C          C       0.38214   0.74241   0.99127  -0.01154
C          C       0.64177   0.29645   0.98993   0.37306
C          C       0.69987   0.34448   0.98895   0.37247
C          C       0.65219   0.35439   0.99363   0.37187
C          C       0.35732   0.70306   0.99472   0.37345
C          C       0.29941   0.65507  -0.00308   0.37258
C          C       0.34790   0.64546  -0.00117   0.37312
C          C       0.66264   0.41745  -0.00210  -0.08360
C          C       0.57996   0.24362   0.00271  -0.08428
C          C       0.75271   0.33500   0.98005  -0.08195
C          C       0.33954   0.58305   0.01208  -0.08418
C          C       0.41945   0.75628   0.98549  -0.08440
C          C       0.24460   0.66423   0.98551  -0.08006
C          C       0.64984   0.44160  -0.00020  -0.18949
C          C       0.55630   0.20670   0.00694  -0.17925
C          C       0.79063   0.34865   0.98462  -0.18086
C          C       0.35436   0.55975   0.02586  -0.18733
C          C       0.44329   0.79333   0.98300  -0.17998
C          C       0.20685   0.65099   0.98154  -0.18557
C          C       0.40041   0.63351   0.00326  -0.08433
C          C       0.36920   0.76685   0.99574  -0.08437
C          C       0.23565   0.60345   0.00155  -0.07996
C          C       0.60097   0.36670   0.00105  -0.08283
C          C       0.62958   0.23267   0.98990  -0.08433
C          C       0.76581   0.39715   0.00476  -0.07805
C          C       0.41555   0.61050   0.01595  -0.17991
C          C       0.39264   0.80403   0.99382  -0.18915
C          C       0.19778   0.58964  -0.00244  -0.18278
C          C       0.58765   0.39045   0.00240  -0.18221
C          C       0.60634   0.19564   0.99401  -0.19002
C          C       0.80392   0.41135   0.01030  -0.18412
C          C       0.61214   0.42826   0.00194   0.22612
C          C       0.56948   0.18244   0.00356   0.22687
C          C       0.81644   0.38694  -0.00110   0.23307
C          C       0.39255   0.57330   0.02827   0.22736
C          C       0.42993   0.81747   0.98700   0.22330
C          C       0.18320   0.61355   0.98821   0.23602
C          C       0.42447   0.53800   0.01634   0.21779
C          C       0.46350   0.88583   0.98472   0.21182
C          C       0.11352   0.58008   0.98264   0.22394
C          C       0.57917   0.46296   0.01274   0.21841
C          C       0.53855   0.11546   0.03578   0.21008
C          C       0.88564   0.42245   0.00221   0.22348
C          C       0.52475   0.47230   0.00906  -0.12235
C          C       0.53128   0.05341   0.04621  -0.11958
C          C       0.94859   0.47727   0.00199  -0.12181
C          C       0.47630   0.52729   0.00402  -0.11670
C          C       0.47306   0.94877  -0.00071  -0.12110
C          C       0.04980   0.52659   0.97968  -0.12141
C          C       0.43875   0.51775  -0.00131  -0.13973
C          C       0.48282   0.92221   0.99095  -0.15348
C          C       0.07741   0.56360   0.98512  -0.12638
C          C       0.56219   0.48209   0.01298  -0.14295
C          C       0.52125   0.07998   0.05052  -0.15781
C          C       0.92152   0.44011  -0.00250  -0.13017
C          C       0.51660   0.49991   0.50010   0.07112
C          C       0.49593   0.01597   0.52939   0.07601
C          C       0.98419   0.48110   0.49352   0.06599
C          C       0.48032   0.49638   0.49873   0.06782
C          C       0.50117   0.98507   0.51805   0.07516
C          C       0.01528   0.51795   0.49252   0.06782
C          C       0.54969   0.53363   0.49851  -0.28508
C          C       0.46136   0.01283   0.53365  -0.26531
C          C       0.98544   0.44884   0.48038  -0.29348
C          C       0.44679   0.46258   0.49718  -0.28264
C          C       0.53645   0.98903   0.51765  -0.26038
C          C       0.01346   0.54996   0.50262  -0.28913
C          C       0.73966   0.35740   0.49013  -0.01299
C          C       0.63791   0.37778   0.49811  -0.01324
C          C       0.61692   0.25595   0.49921  -0.00901
C          C       0.25948   0.64180   0.49534  -0.01624
C          C       0.36236   0.62087   0.50312  -0.01327
C          C       0.38230   0.74277   0.48946  -0.01176
C          C       0.64236   0.29514   0.49525   0.37515
C          C       0.69995   0.34302   0.49005   0.37263
C          C       0.65223   0.35288   0.49472   0.37350
C          C       0.35710   0.70350   0.49244   0.37281
C          C       0.29929   0.65586   0.49681   0.37214
C          C       0.34754   0.64587   0.49826   0.37820
C          C       0.66094   0.41546   0.49477  -0.08230
C          C       0.57939   0.24306   0.50161  -0.08492
C          C       0.75246   0.33336   0.47898  -0.08302
C          C       0.34057   0.58400   0.52111  -0.08661
C          C       0.41983   0.75642   0.48581  -0.08625
C          C       0.24461   0.66532   0.48641  -0.08045
C          C       0.64690   0.43876   0.49378  -0.18711
C          C       0.55406   0.20608   0.49938  -0.18002
C          C       0.79042   0.34687   0.48401  -0.18179
C          C       0.35546   0.56079   0.53392  -0.18747
C          C       0.44426   0.79359   0.48705  -0.17872
C          C       0.20648   0.65193   0.47970  -0.18186
C          C       0.39924   0.63371   0.49500  -0.08380
C          C       0.36965   0.76740   0.49406  -0.08317
C          C       0.23523   0.60437   0.49925  -0.08022
C          C       0.60032   0.36399   0.50163  -0.08195
C          C       0.62894   0.23072   0.49697  -0.08747
C          C       0.76589   0.39559   0.50504  -0.08048
C          C       0.41429   0.61074   0.50581  -0.18201
C          C       0.39367   0.80463   0.49537  -0.19070
C          C       0.19712   0.59047   0.49318  -0.18416
C          C       0.58575   0.38683   0.50055  -0.18366
C          C       0.60413   0.19362   0.49618  -0.19013
C          C       0.80399   0.40963   0.51077  -0.18510
C          C       0.60903   0.42459   0.49589   0.22666
C          C       0.56634   0.18105   0.49677   0.22613
C          C       0.81648   0.38520   0.49946   0.23370
C          C       0.39256   0.57400   0.52706   0.22775
C          C       0.43126   0.81797   0.49157   0.22421
C          C       0.18254   0.61436   0.48432   0.23637
C          C       0.42506   0.53920   0.51535   0.21696
C          C       0.46336   0.88601   0.49020   0.21311
C          C       0.11330   0.57927   0.48112   0.22621
C          C       0.57518   0.45864   0.50577   0.21485
C          C       0.53298   0.11398   0.52273   0.21154
C          C       0.88612   0.42021   0.50507   0.22155
C          C       0.52178   0.46956   0.50458  -0.12327
C          C       0.52556   0.05219   0.53233  -0.11976
C          C       0.94955   0.47481   0.50699  -0.12062
C          C       0.47647   0.52725   0.50381  -0.11683
C          C       0.47086   0.94820   0.50508  -0.11951
C          C       0.05030   0.52455   0.48128  -0.12068
C          C       0.43924   0.51872   0.49881  -0.14062
C          C       0.48112   0.92223   0.49341  -0.15495
C          C       0.07727   0.56166   0.48465  -0.12920
C          C       0.55920   0.47835   0.51105  -0.14035
C          C       0.51608   0.07887   0.54288  -0.15590
C          C       0.92225   0.43767   0.50216  -0.12883
S          S       0.41146   0.46673   0.99222   0.17923
S          S       0.53647   0.94924   0.01155   0.16631
S          S       0.05378   0.58943   0.00006   0.15427
S          S       0.58701   0.53241   0.00125   0.18084
S          S       0.46754   0.05302   0.02956   0.17101
S          S       0.94628   0.41504   0.98523   0.16223
S          S       0.41096   0.46771   0.49349   0.17919
S          S       0.53355   0.94995   0.50268   0.17208
S          S       0.05249   0.58669   0.49779   0.16060
S          S       0.58620   0.52898   0.50646   0.17782
S          S       0.46504   0.05243   0.54510   0.16886
S          S       0.94593   0.41221   0.48356   0.15869
N          N       0.62748   0.31840   0.99130  -0.42011
N          N       0.67745   0.30803   0.98670  -0.42136
N          N       0.68863   0.36878   0.99272  -0.41915
N          N       0.37215   0.68129  -0.00278  -0.42220
N          N       0.32131   0.69133   0.99522  -0.42026
N          N       0.31139   0.63103  -0.00084  -0.41915
N          N       0.60008   0.45220   0.00722  -0.17128
N          N       0.54638   0.14616   0.00970  -0.16692
N          N       0.85345   0.40023   0.00123  -0.17127
N          N       0.40788   0.55056   0.04985  -0.17971
N          N       0.45266   0.85362   0.97750  -0.16871
N          N       0.14646   0.60069   0.98708  -0.16790
N          N       0.62798   0.31705   0.49549  -0.42104
N          N       0.67799   0.30667   0.49159  -0.42237
N          N       0.68839   0.36722   0.49148  -0.42014
N          N       0.37169   0.68157   0.49486  -0.42252
N          N       0.32121   0.69202   0.49368  -0.41880
N          N       0.31116   0.63167   0.49960  -0.42198
N          N       0.59486   0.44741   0.49115  -0.17215
N          N       0.54055   0.14435   0.48920  -0.17264
N          N       0.85341   0.39837   0.50109  -0.16987
N          N       0.40805   0.55143   0.54774  -0.17803
N          N       0.45502   0.85442   0.48937  -0.17585
N          N       0.14544   0.60131   0.48108  -0.17608

