data_crystal

_audit_creation_method 'AiiDA-DDEC plugin'

_cell_length_a        25.83150
_cell_length_b        25.95987
_cell_length_c         8.15216

_cell_angle_alpha     80.94771
_cell_angle_beta     88.13495
_cell_angle_gamma     119.36794

_symmetry_space_group_name_Hall 'P 1'
_symmetry_space_group_name_H-M  'P 1'

loop_
_symmetry_equiv_pos_as_xyz
 'x,y,z'

loop_
_atom_site_label
_atom_site_type_symbol
_atom_site_fract_x
_atom_site_fract_y
_atom_site_fract_z
_atom_site_charge
H          H       0.10955   0.98024   0.39668   0.10448
H          H       0.22041   0.04551   0.35927   0.10762
H          H       0.20723   0.17720  -0.00036   0.10201
H          H       0.09721   0.10985   0.02630   0.10969
H          H       0.30616   0.20043   0.09495   0.06292
H          H       0.37525   0.23146   0.32656   0.10288
H          H       0.48321   0.28818   0.35237   0.10383
H          H       0.51146   0.16985   0.09442   0.10214
H          H       0.40245   0.11034   0.08063   0.12035
H          H       0.57829   0.18544   0.27029   0.10363
H          H       0.95095   0.09768   0.15632   0.10706
H          H       0.88783   0.14278   0.20874   0.11407
H          H       0.75481   0.07883   0.03103   0.07066
H          H       0.68635   0.09945   0.50643   0.10857
H          H       0.63089   0.15463   0.49148   0.10657
H          H       0.76802   0.29680   0.11509   0.10803
H          H       0.82322   0.24008   0.12712   0.11561
H          H       0.73884   0.34758   0.31055   0.10449
H          H       0.85695   0.90006   0.28137   0.10317
H          H       0.82758   0.81222   0.36935   0.10617
H          H       0.77540   0.70560   0.34513   0.11436
H          H       0.91639   0.73878   0.50605   0.10189
H          H       0.97680   0.84568   0.03323   0.09424
H          H       0.83603   0.63959   0.06514   0.06666
H          H       0.82615   0.55207   0.13957   0.10717
H          H       0.77502   0.44337   0.13658   0.10485
H          H       0.61776   0.41732   0.41872   0.10774
H          H       0.66933   0.52735   0.42051   0.11774
H          H       0.57748   0.35224   0.23045   0.10155
H          H       0.09413   0.86688   0.06262   0.03556
H          H       0.00679   0.83279   0.29136   0.07068
H          H       0.05738   0.89167   0.38909   0.07175
H          H       0.17194   0.80763   0.36157   0.05660
H          H       0.15394   0.79178   0.16068   0.05903
H          H       0.06401   0.77823   0.25685   0.23617
H          H       0.24261   0.90756   0.21327   0.09324
H          H       0.20763   0.89334   0.02990   0.08794
H          H       0.16775   0.92874   0.33063   0.09356
H          H       0.17760   0.96181   0.11621   0.10613
H          H       0.76768   0.98772   0.07770   0.10402
H          H       0.01441   0.06881   0.28514   0.10751
H          H       0.82733   0.93544   0.50658   0.10714
H          H       0.10563   0.97910   0.89448   0.10448
H          H       0.21642   0.04382   0.85749   0.10705
H          H       0.20422   0.17668   0.50098   0.10250
H          H       0.09398   0.11007   0.52754   0.10983
H          H       0.30260   0.19877   0.59375   0.06303
H          H       0.37134   0.23133   0.81930   0.10231
H          H       0.47917   0.28788   0.84565   0.10771
H          H       0.50664   0.16562   0.60480   0.10333
H          H       0.39741   0.10574   0.59371   0.12119
H          H       0.57649   0.18640   0.76437   0.10063
H          H       0.94304   0.09384   0.63652   0.10558
H          H       0.88141   0.14058   0.68819   0.11286
H          H       0.75187   0.07085   0.52594   0.06864
H          H       0.67871   0.09592   0.96823   0.10856
H          H       0.62303   0.15102   0.95642   0.10427
H          H       0.77254   0.30589   0.64366   0.10538
H          H       0.82833   0.25013   0.65410   0.11682
H          H       0.73470   0.35021   0.80734   0.10345
H          H       0.85345   0.89910   0.79600   0.10499
H          H       0.82695   0.81147   0.89410   0.10504
H          H       0.77352   0.70457   0.87075   0.11395
H          H       0.92556   0.73883   0.01159   0.10119
H          H       0.96926   0.84604   0.52698   0.09569
H          H       0.82706   0.63941   0.56828   0.06603
H          H       0.82022   0.55244   0.64126   0.10818
H          H       0.76811   0.44425   0.63086   0.10685
H          H       0.61303   0.41672   0.92851   0.10743
H          H       0.66537   0.52623   0.93716   0.11673
H          H       0.57101   0.35054   0.73506   0.10258
H          H       0.08740   0.86028   0.56715   0.03694
H          H       0.00085   0.83254   0.79350   0.06985
H          H       0.05409   0.89164   0.88614   0.07058
H          H       0.15891   0.79790   0.88015   0.05573
H          H       0.14129   0.78267   0.67820   0.06036
H          H       0.05304   0.77335   0.77464   0.23668
H          H       0.23297   0.89696   0.73747   0.09057
H          H       0.20202   0.88290   0.54790   0.08929
H          H       0.16161   0.92577   0.82874   0.09439
H          H       0.17338   0.95486   0.61109   0.10467
H          H       0.76562   0.98134   0.56252   0.10514
H          H       0.01148   0.06958   0.78044   0.11054
H          H       0.82792   0.94036   0.02368   0.10811
C          C       0.09580   0.03922   0.20911   0.09000
C          C       0.13124   0.02199   0.30397  -0.12324
C          C       0.19292   0.05884   0.28615  -0.10430
C          C       0.22146   0.11500   0.17495   0.04359
C          C       0.18600   0.13380   0.08602  -0.12886
C          C       0.12401   0.09607   0.10154  -0.13871
C          C       0.02986  -0.00052   0.22662  -0.01706
C          C       0.28671   0.15258   0.15455   0.07061
C          C       0.38136   0.16697   0.20175   0.20400
C          C       0.40544   0.21889   0.27231  -0.18964
C          C       0.46641   0.25090   0.28612  -0.12028
C          C       0.50577   0.23324   0.22611   0.04742
C          C       0.48156   0.18251   0.15004  -0.12466
C          C       0.42055   0.14920   0.14063  -0.15882
C          C       0.56973   0.26483   0.24972   0.08184
C          C       0.60138   0.23351   0.27030  -0.18934
C          C       0.99333   0.02260   0.26624  -0.16851
C          C       0.89339   0.01310   0.32687   0.06972
C          C       0.91062   0.07240   0.24641  -0.13314
C          C       0.87559   0.09772   0.27432  -0.10941
C          C       0.82242   0.06508   0.38720   0.05120
C          C       0.80571   0.00645   0.47112  -0.12701
C          C       0.84030   0.98054   0.43940  -0.13740
C          C       0.93075   0.98698   0.28938   0.06290
C          C       0.78554   0.09212   0.41417   0.06806
C          C       0.75962   0.16677   0.31861   0.19787
C          C       0.70461   0.14263   0.42049  -0.16638
C          C       0.67318   0.17364   0.41154  -0.12827
C          C       0.69572   0.22997   0.30313   0.06262
C          C       0.75092   0.25423   0.20331  -0.13274
C          C       0.78178   0.22282   0.20914  -0.14839
C          C       0.66247   0.26303   0.28865   0.08014
C          C       0.69205   0.32496   0.28960  -0.18853
C          C       0.90545   0.92717   0.26982  -0.16835
C          C       0.90760   0.83800   0.20434   0.07894
C          C       0.84919   0.79713   0.28764  -0.12880
C          C       0.81971   0.73665   0.27657  -0.11311
C          C       0.84728   0.71385   0.18156   0.05208
C          C       0.90417   0.75461   0.09221  -0.12796
C          C       0.93334   0.81505   0.10396  -0.14335
C          C       0.93973   0.90156   0.22615  -0.02295
C          C       0.81872   0.65016   0.17238   0.06577
C          C       0.75019   0.54785   0.27520   0.20032
C          C       0.78023   0.52302   0.19929  -0.16904
C          C       0.75172   0.46152   0.19977  -0.12400
C          C       0.69226   0.42237   0.27542   0.06017
C          C       0.66288   0.44718   0.35377  -0.13052
C          C       0.69147   0.50848   0.35582  -0.15109
C          C       0.66145   0.35733   0.27266   0.07833
C          C       0.60059   0.32673   0.25147  -0.18520
C          C       0.00314   0.93899   0.20578   0.16181
C          C       0.15652   0.82118   0.24741  -0.02452
C          C       0.09939   0.87027   0.19488   0.11311
C          C       0.16355   0.91927   0.20350  -0.20701
C          C       0.19904   0.88835   0.16593  -0.17422
C          C       0.04846   0.87662   0.26987  -0.04214
C          C       0.09219   0.03869   0.70777   0.08967
C          C       0.12739   0.02088   0.80195  -0.12341
C          C       0.18907   0.05734   0.78441  -0.10401
C          C       0.21783   0.11364   0.67397   0.04402
C          C       0.18265   0.13305   0.58614  -0.12884
C          C       0.12064   0.09578   0.60162  -0.14038
C          C       0.02626  -0.00071   0.72596  -0.01728
C          C       0.28296   0.15094   0.65384   0.06967
C          C       0.37716   0.16497   0.70302   0.20217
C          C       0.40140   0.21802   0.76825  -0.18753
C          C       0.46233   0.24999   0.78191  -0.12456
C          C       0.50164   0.23167   0.72584   0.04884
C          C       0.47713   0.17961   0.65551  -0.12298
C          C       0.41605   0.14604   0.64747  -0.15770
C          C       0.56567   0.26430   0.74829   0.08048
C          C       0.59859   0.23429   0.76630  -0.18916
C          C       0.99004   0.02292   0.76500  -0.17054
C          C       0.89019   0.01386   0.82748   0.07185
C          C       0.90518   0.07105   0.73501  -0.13362
C          C       0.87083   0.09717   0.76221  -0.10866
C          C       0.82060   0.06776   0.88558   0.04695
C          C       0.80560   0.01083   0.97915  -0.12442
C          C       0.83941   0.98395   0.94860  -0.14078
C          C       0.92744   0.98725   0.79235   0.06228
C          C       0.78534   0.09657   0.91320   0.07236
C          C       0.75829   0.16987   0.81401   0.20184
C          C       0.69979   0.14216   0.89862  -0.17025
C          C       0.66819   0.17300   0.89041  -0.12358
C          C       0.69371   0.23259   0.79982   0.05794
C          C       0.75253   0.26044   0.71824  -0.12808
C          C       0.78385   0.22951   0.72315  -0.15098
C          C       0.65967   0.26475   0.78477   0.07838
C          C       0.68790   0.32652   0.78719  -0.18684
C          C       0.90198   0.92681   0.77891  -0.16780
C          C       0.90337   0.83740   0.71351   0.07920
C          C       0.84652   0.79640   0.80595  -0.13294
C          C       0.81643   0.73592   0.79514  -0.11256
C          C       0.84179   0.71351   0.69100   0.04977
C          C       0.89707   0.75452   0.59314  -0.12762
C          C       0.92710   0.81502   0.60471  -0.14092
C          C       0.93597   0.90112   0.73310  -0.02075
C          C       0.81244   0.64982   0.68078   0.06792
C          C       0.74534   0.54738   0.78533   0.20062
C          C       0.77457   0.52313   0.70288  -0.16979
C          C       0.74553   0.46192   0.69940  -0.12524
C          C       0.68652   0.42249   0.77803   0.05726
C          C       0.65786   0.44677   0.86209  -0.13034
C          C       0.68695   0.50780   0.86809  -0.15330
C          C       0.65610   0.35765   0.77280   0.08141
C          C       0.59520   0.32603   0.75288  -0.18794
C          C      -0.00064   0.93860   0.70692   0.16029
C          C       0.14540   0.81280   0.76401  -0.02367
C          C       0.09256   0.86563   0.69802   0.11217
C          C       0.15744   0.91337   0.70519  -0.20668
C          C       0.19093   0.87923   0.68195  -0.17431
C          C       0.04348   0.87544   0.76887  -0.04287
N          N       0.31978   0.13009   0.20273  -0.27317
N          N       0.79392   0.13890   0.30795  -0.30153
N          N       0.77537   0.60900   0.28360  -0.29492
N          N       0.09729   0.81574   0.29046  -0.41037
N          N       0.31570   0.12819   0.70330  -0.27324
N          N       0.79198   0.14149   0.80209  -0.29622
N          N       0.77115   0.60837   0.79642  -0.29427
N          N       0.08780   0.81110   0.80301  -0.40843
O          O       0.04196   0.92063   0.15221  -0.22193
O          O       0.03776   0.91994   0.65068  -0.22289

