data_crystal

_audit_creation_method 'AiiDA-DDEC plugin'

_cell_length_a        26.13839
_cell_length_b        25.68901
_cell_length_c         7.94938

_cell_angle_alpha     79.04833
_cell_angle_beta     96.49526
_cell_angle_gamma     120.40964

_symmetry_space_group_name_Hall 'P 1'
_symmetry_space_group_name_H-M  'P 1'

loop_
_symmetry_equiv_pos_as_xyz
 'x,y,z'

loop_
_atom_site_label
_atom_site_type_symbol
_atom_site_fract_x
_atom_site_fract_y
_atom_site_fract_z
_atom_site_charge
H          H       0.15910   0.01292   0.43163   0.08091
H          H       0.26670   0.07333   0.38495   0.09737
H          H       0.24059   0.19856   0.99331   0.12176
H          H       0.13172   0.13588   0.03529   0.10711
H          H       0.33896   0.10248   0.22540   0.04658
H          H       0.41673   0.26756   0.46871   0.11671
H          H       0.52709   0.32862   0.45237   0.10804
H          H       0.54541   0.18225   0.29024   0.10654
H          H       0.43602   0.11869   0.30379   0.09452
H          H       0.62887   0.22642   0.12014   0.10298
H          H       0.01489   0.15038   0.14535   0.10403
H          H       0.96286   0.20732   0.13986   0.10752
H          H       0.82663   0.05493   0.45514   0.11682
H          H       0.87943   0.99708   0.46436   0.10554
H          H       0.89114   0.22374   0.06412   0.06586
H          H       0.75747   0.15818   0.33347   0.11366
H          H       0.69219   0.20338   0.31913   0.10468
H          H       0.80913   0.35255   0.48121   0.10776
H          H       0.87718   0.31339   0.98605   0.10222
H          H       0.78083   0.40278   0.16269   0.10305
H          H       0.87064   0.87447   0.15946   0.09825
H          H       0.80555   0.76406   0.16634   0.10558
H          H       0.92681   0.73106   0.52249   0.12465
H          H       0.98916   0.84190   0.52595   0.09715
H          H       0.77791   0.67704   0.12342   0.06294
H          H       0.83542   0.57632   0.36927   0.11353
H          H       0.79228   0.46648   0.34211   0.09994
H          H       0.65546   0.47577   0.00440   0.10329
H          H       0.69876   0.58469   0.03153   0.10184
H          H       0.60520   0.37870   0.14250   0.10416
H          H       0.01353   0.66108   0.46336   0.11583
H          H       0.13432   0.72759   0.53652   0.12305
H          H       0.08264   0.86414   0.05355   0.07057
H          H       0.16300   0.93218   0.32375   0.10441
H          H       0.20361   0.87003   0.45543   0.08282
H          H       0.06783   0.11279   0.25175   0.10386
H          H       0.90301   0.94460   0.34911   0.10239
H          H       0.11390   0.96923   0.17945   0.06466
H          H       0.15954   0.01689   0.92736   0.08367
H          H       0.26664   0.07915   0.87451   0.10057
H          H       0.23528   0.20020   0.48051   0.12076
H          H       0.12709   0.13672   0.53252   0.10987
H          H       0.33480   0.10550   0.70184   0.04548
H          H       0.41773   0.26249   0.97746   0.11614
H          H       0.52776   0.32521   0.95606   0.10931
H          H       0.54012   0.18121   0.77631   0.10687
H          H       0.43050   0.11929   0.78294   0.09450
H          H       0.62443   0.22429   0.61882   0.10258
H          H       0.00811   0.14691   0.65216   0.10493
H          H       0.95341   0.20095   0.65105   0.11039
H          H       0.82092   0.04630   0.97082   0.11652
H          H       0.87689   0.99184   0.97762   0.10349
H          H       0.87818   0.21018   0.57015   0.06482
H          H       0.74976   0.15299   0.85436   0.11214
H          H       0.68639   0.20098   0.83199   0.10330
H          H       0.81335   0.35950   0.97596   0.10637
H          H       0.87025   0.30297   0.49574   0.10571
H          H       0.77866   0.39867   0.66287   0.10300
H          H       0.87402   0.87384   0.65070   0.10140
H          H       0.81000   0.76381   0.65280   0.10412
H          H       0.92617   0.73009   0.03000   0.12274
H          H       0.98734   0.84065   0.03687   0.09745
H          H       0.77636   0.67462   0.63197   0.06260
H          H       0.83590   0.57375   0.86888   0.11342
H          H       0.79258   0.46447   0.83635   0.09886
H          H       0.65649   0.47605   0.49962   0.10558
H          H       0.69993   0.58442   0.53283   0.10080
H          H       0.60498   0.37979   0.63416   0.10274
H          H       0.02440   0.66597   0.96710   0.11651
H          H       0.14514   0.73662   0.03303   0.12378
H          H       0.08341   0.86729   0.55576   0.06964
H          H       0.16816   0.94099   0.80622   0.10888
H          H       0.20751   0.87954   0.95476   0.08166
H          H       0.06411   0.11220   0.75595   0.10474
H          H       0.90181   0.94151   0.85899   0.10369
H          H       0.11294   0.97139   0.67415   0.06441
H          H       0.18590   0.93084   0.61320   0.10600
H          H       0.21564   0.86103   0.75900   0.08188
H          H       0.18465   0.92864   0.12665   0.10687
H          H       0.20786   0.85101   0.25583   0.07942
C          C       0.13649   0.06812   0.23241   0.05547
C          C       0.17652   0.05200   0.32963  -0.13478
C          C       0.23718   0.08590   0.30292  -0.18709
C          C       0.26133   0.13876   0.17761   0.20369
C          C       0.22217   0.15752   0.08866  -0.14277
C          C       0.16136   0.12262   0.11391  -0.12341
C          C       0.07181   0.03203   0.25647   0.03390
C          C       0.35578   0.15091   0.17079   0.06187
C          C       0.41945   0.18694   0.14483   0.04767
C          C       0.44618   0.24557   0.04590  -0.09828
C          C       0.50750   0.28044   0.03538  -0.13350
C          C       0.54450   0.25874   0.12464   0.07442
C          C       0.51761   0.19939   0.21818  -0.13795
C          C       0.45615   0.16390   0.22673  -0.13292
C          C       0.60955   0.29821   0.12835   0.07341
C          C       0.64748   0.27428   0.13158  -0.18451
C          C       0.04192   0.06331   0.26304  -0.18935
C          C       0.95078   0.06813   0.30128   0.05147
C          C       0.97380   0.12890   0.21494  -0.12488
C          C       0.94395   0.16103   0.20975  -0.17172
C          C       0.88895   0.13386   0.29079   0.20339
C          C       0.86738   0.07461   0.38503  -0.15056
C          C       0.89706   0.04239   0.38859  -0.12421
C          C       0.98081   0.03364   0.29589   0.07408
C          C       0.85958   0.20554   0.16874   0.06356
C          C       0.82204   0.23276   0.16292   0.04980
C          C       0.76889   0.20196   0.25444  -0.10556
C          C       0.73250   0.22724   0.24482  -0.13382
C          C       0.74816   0.28491   0.14697   0.06724
C          C       0.80141   0.31585   0.05662  -0.13951
C          C       0.83722   0.28975   0.06194  -0.12478
C          C       0.70933   0.31147   0.14270   0.07602
C          C       0.73298   0.37356   0.15240  -0.18577
C          C       0.95023   0.96904   0.32346  -0.18480
C          C       0.93713   0.86714   0.33381   0.05348
C          C       0.88258   0.84304   0.24161  -0.12577
C          C       0.84612   0.78053   0.24415  -0.17806
C          C       0.86346   0.73928   0.33803   0.19439
C          C       0.91485   0.76281   0.44272  -0.12901
C          C       0.95057   0.82536   0.44123  -0.10204
C          C       0.97639   0.93409   0.31593   0.05205
C          C       0.79518   0.65185   0.21661   0.06728
C          C       0.77012   0.58767   0.20241   0.06020
C          C       0.79644   0.55361   0.28850  -0.09599
C          C       0.77240   0.49272   0.27164  -0.13647
C          C       0.72096   0.46321   0.17052   0.06173
C          C       0.69430   0.49715   0.08677  -0.13241
C          C       0.71889   0.55853   0.10111  -0.12820
C          C       0.69605   0.39866   0.15169   0.08235
C          C       0.63446   0.36046   0.13753  -0.18201
C          C       0.03927   0.96524   0.27698  -0.04601
C          C       0.04484   0.70834   0.41634  -0.01879
C          C       0.10509   0.74033   0.45529  -0.15735
C          C       0.07548   0.79890   0.28139   0.18770
C          C       0.09094   0.86147   0.19236   0.09151
C          C       0.15810   0.90053   0.24003  -0.24914
C          C       0.17929   0.85589   0.33559  -0.04810
C          C       0.07090   0.93906   0.23734   0.01060
C          C       0.13436   0.07000   0.72846   0.05443
C          C       0.17565   0.05535   0.82339  -0.13530
C          C       0.23602   0.09017   0.79287  -0.18815
C          C       0.25851   0.14222   0.66469   0.20463
C          C       0.21814   0.15967   0.57781  -0.14418
C          C       0.15766   0.12412   0.60814  -0.12665
C          C       0.06998   0.03265   0.75776   0.03601
C          C       0.35240   0.15441   0.65203   0.06355
C          C       0.41624   0.18992   0.62940   0.04762
C          C       0.44437   0.24935   0.53551  -0.09855
C          C       0.50584   0.28322   0.52816  -0.13055
C          C       0.54166   0.25979   0.61626   0.07248
C          C       0.51331   0.19972   0.70504  -0.13723
C          C       0.45173   0.16517   0.70977  -0.13253
C          C       0.60692   0.29784   0.62243   0.07425
C          C       0.64370   0.27232   0.62941  -0.18459
C          C       0.03911   0.06266   0.76797  -0.18978
C          C       0.94644   0.06412   0.81162   0.04880
C          C       0.96743   0.12442   0.72417  -0.12362
C          C       0.93602   0.15482   0.72112  -0.17486
C          C       0.88138   0.12623   0.80477   0.20481
C          C       0.86154   0.06724   0.89923  -0.15240
C          C       0.89290   0.03685   0.90102  -0.12395
C          C       0.97820   0.03150   0.80480   0.07770
C          C       0.84974   0.19539   0.68107   0.06650
C          C       0.81404   0.22453   0.67675   0.04703
C          C       0.76169   0.19618   0.77116  -0.10425
C          C       0.72651   0.22306   0.75748  -0.13492
C          C       0.74324   0.28015   0.65440   0.06762
C          C       0.79634   0.30915   0.56427  -0.13996
C          C       0.83056   0.28119   0.57228  -0.12350
C          C       0.70559   0.30830   0.64392   0.07713
C          C       0.73067   0.37073   0.65134  -0.18579
C          C       0.94895   0.96696   0.83226  -0.18677
C          C       0.93772   0.86623   0.83668   0.05582
C          C       0.88483   0.84232   0.73716  -0.13011
C          C       0.84883   0.77986   0.73761  -0.17658
C          C       0.86486   0.73837   0.83717   0.19356
C          C       0.91484   0.76181   0.94710  -0.13015
C          C       0.95012   0.82432   0.94755  -0.10565
C          C       0.97621   0.93331   0.82204   0.05547
C          C       0.79540   0.65012   0.72052   0.06600
C          C       0.77061   0.58614   0.70435   0.06000
C          C       0.79682   0.55165   0.78789  -0.09567
C          C       0.77260   0.49095   0.76823  -0.13612
C          C       0.72099   0.46206   0.66702   0.06218
C          C       0.69492   0.49665   0.58401  -0.13488
C          C       0.71962   0.55773   0.60151  -0.12625
C          C       0.69502   0.39743   0.64739   0.08212
C          C       0.63330   0.36033   0.63103  -0.18061
C          C       0.03880   0.96586   0.77976  -0.04624
C          C       0.05412   0.71362   0.91902  -0.01698
C          C       0.11444   0.74772   0.95427  -0.16108
C          C       0.08106   0.80337   0.78264   0.18875
C          C       0.09376   0.86513   0.69367   0.09142
C          C       0.16147   0.90611   0.73199  -0.24830
C          C       0.18480   0.86413   0.83427  -0.04991
C          C       0.07115   0.94071   0.73825   0.01585
N          N       0.32124   0.17431   0.13689  -0.29214
N          N       0.85404   0.16099   0.28831  -0.30464
N          N       0.83581   0.67667   0.33100  -0.29251
N          N       0.12377   0.79865   0.36840  -0.00910
N          N       0.02680   0.74491   0.30720  -0.30673
N          N       0.31818   0.17822   0.62157  -0.29052
N          N       0.84595   0.15265   0.80454  -0.30048
N          N       0.83747   0.67566   0.83065  -0.29196
N          N       0.13078   0.80541   0.86628  -0.00898
N          N       0.03374   0.74840   0.81141  -0.30707
O          O       0.05224   0.87840   0.25924  -0.14085
O          O       0.05494   0.88058   0.76697  -0.14061

