data_crystal

_audit_creation_method 'AiiDA-DDEC plugin'

_cell_length_a        38.01328
_cell_length_b        38.17771
_cell_length_c         7.93676

_cell_angle_alpha     118.54337
_cell_angle_beta     83.87487
_cell_angle_gamma     120.43609

_symmetry_space_group_name_Hall 'P 1'
_symmetry_space_group_name_H-M  'P 1'

loop_
_symmetry_equiv_pos_as_xyz
 'x,y,z'

loop_
_atom_site_label
_atom_site_type_symbol
_atom_site_fract_x
_atom_site_fract_y
_atom_site_fract_z
_atom_site_charge
H          H       0.68837   0.47650   0.32604   0.13373
H          H       0.52078   0.20798   0.29587   0.13317
H          H       0.78723   0.31485   0.37045   0.13317
H          H       0.31242   0.52810   0.36907   0.13459
H          H       0.47838   0.78771   0.31712   0.13369
H          H       0.21227   0.68787   0.32445   0.13059
H          H       0.64088   0.50389   0.32239   0.12397
H          H       0.49257   0.13091   0.27942   0.12575
H          H       0.86241   0.35997   0.35329   0.12733
H          H       0.36008   0.50130   0.37780   0.12382
H          H       0.50658   0.86319   0.31835   0.12318
H          H       0.13696   0.64119   0.33465   0.12633
H          H       0.54025   0.38616   0.35956   0.09896
H          H       0.61699   0.17062   0.44154   0.10301
H          H       0.84207   0.45995   0.34043   0.09821
H          H       0.46155   0.62130   0.35916   0.09902
H          H       0.38408   0.84207   0.32669   0.09696
H          H       0.16098   0.54903   0.39900   0.09826
H          H       0.58705   0.35970   0.36434   0.13319
H          H       0.64463   0.24535   0.44804   0.13005
H          H       0.76852   0.41559   0.35837   0.13460
H          H       0.41467   0.64732   0.35057   0.13320
H          H       0.35695   0.76859   0.32886   0.13238
H          H       0.23434   0.59420   0.38369   0.13313
H          H       0.41580   0.91605   0.41496   0.28960
H          H       0.43923   0.43741   0.39699   0.14647
H          H       0.56237   0.56976   0.32121   0.14611
H          H       0.00924   0.44237   0.37840   0.14200
H          H       0.56789   0.00346   0.26467   0.13949
H          H       0.99151   0.56099   0.32482   0.14159
H          H       0.43207  -0.00069   0.41093   0.13962
H          H       0.90525   0.49161   0.29433   0.28956
H          H       0.09544   0.51130   0.40597   0.28920
H          H       0.49649   0.58757   0.31138   0.29153
H          H       0.50531   0.42002   0.40744   0.29244
H          H       0.58532   0.08847   0.27202   0.29177
H          H       0.68716   0.47309   0.84634   0.13365
H          H       0.52039   0.20361   0.80233   0.13413
H          H       0.78795   0.31264   0.88295   0.13229
H          H       0.31071   0.52339   0.87450   0.13394
H          H       0.47791   0.78268   0.81720   0.13368
H          H       0.21333   0.68646   0.84446   0.13308
H          H       0.63966   0.50080   0.84666   0.12334
H          H       0.49159   0.12666   0.78745   0.12358
H          H       0.86291   0.35784   0.86319   0.12583
H          H       0.35748   0.49555   0.88339   0.12192
H          H       0.50589   0.85875   0.82343   0.12158
H          H       0.13779   0.63996   0.85225   0.13062
H          H       0.53740   0.37673   0.83271   0.10026
H          H       0.61584   0.16426   0.93811   0.10032
H          H       0.84048   0.45374   0.82385   0.09822
H          H       0.45928   0.61294   0.84810   0.09841
H          H       0.38292   0.83608   0.82479   0.09815
H          H       0.15908   0.54192   0.87838   0.09778
H          H       0.58416   0.34980   0.83285   0.13545
H          H       0.64406   0.23931   0.94617   0.13184
H          H       0.76720   0.40961   0.84623   0.13345
H          H       0.41307   0.63956   0.83737   0.13415
H          H       0.35599   0.76243   0.82439   0.13275
H          H       0.23286   0.58741   0.86869   0.13433
H          H       0.41379   0.90944   0.90818   0.29003
H          H       0.43756   0.43180   0.90482   0.14564
H          H       0.55973   0.56297   0.81874   0.14546
H          H       0.00884   0.43872   0.87796   0.14048
H          H       0.56665   0.99803   0.76454   0.13947
H          H       0.99104   0.55690   0.82009   0.14115
H          H       0.43068   0.99350   0.90944   0.13903
H          H       0.90483   0.48773   0.79165   0.28800
H          H       0.09499   0.50782   0.90676   0.29003
H          H       0.49365   0.57984   0.80651   0.29297
H          H       0.50354   0.41379   0.91015   0.29161
H          H       0.58383   0.08257   0.77030   0.29232
C          C       0.66692   0.37119   0.36153   0.57917
C          C       0.63180   0.30472   0.37408   0.57764
C          C       0.70010   0.33766   0.37326   0.58684
C          C       0.33441   0.63475   0.34400   0.58224
C          C       0.36898   0.70123   0.33134   0.58147
C          C       0.30089   0.66837   0.33778   0.58564
C          C       0.64040   0.41692   0.34650   0.25754
C          C       0.58406   0.23086   0.37285   0.26052
C          C       0.77372   0.36237   0.36288   0.25926
C          C       0.36088   0.58883   0.35793   0.26101
C          C       0.41635   0.77420   0.32333   0.26545
C          C       0.22743   0.64366   0.35309   0.25968
C          C       0.65579   0.45746   0.33443  -0.19620
C          C       0.54122   0.19901   0.32762  -0.18904
C          C       0.79994   0.34643   0.36091  -0.19033
C          C       0.34522   0.54772   0.36563  -0.20145
C          C       0.45843   0.80050   0.31876  -0.19144
C          C       0.20030   0.65751   0.34232  -0.19179
C          C       0.62957   0.47260   0.33233  -0.08121
C          C       0.52564   0.15647   0.31919  -0.07765
C          C       0.84148   0.37145   0.35194  -0.08588
C          C       0.37154   0.53292   0.37026  -0.07334
C          C       0.47395   0.84226   0.32022  -0.06850
C          C       0.15871   0.63173   0.34809  -0.08488
C          C       0.58737   0.44742   0.34252  -0.00553
C          C       0.55266   0.14508   0.35721  -0.00394
C          C       0.85769   0.41299   0.34510  -0.01291
C          C       0.41400   0.55887   0.36663  -0.00314
C          C       0.44769   0.85854   0.32490  -0.00281
C          C       0.14339   0.59168   0.36584  -0.01252
C          C       0.57267   0.40665   0.35234  -0.10136
C          C       0.59548   0.17766   0.40352  -0.11260
C          C       0.83080   0.42825   0.34746  -0.11374
C          C       0.42890   0.60013   0.36071  -0.10451
C          C       0.40562   0.83137   0.32824  -0.10331
C          C       0.17132   0.57902   0.37994  -0.11371
C          C       0.59866   0.39097   0.35485  -0.19375
C          C       0.61159   0.22059   0.41217  -0.20588
C          C       0.78893   0.40350   0.35694  -0.20467
C          C       0.40286   0.61559   0.35640  -0.19434
C          C       0.38946   0.78926   0.32689  -0.20964
C          C       0.21324   0.60448   0.37312  -0.20574
C          C       0.56091   0.46468   0.34293   0.29671
C          C       0.53544   0.10059   0.35112   0.29929
C          C       0.90150   0.43880   0.33908   0.28444
C          C       0.44053   0.54208   0.37039   0.29388
C          C       0.46465   0.90242   0.32581   0.29935
C          C       0.09939   0.56495   0.36660   0.28649
C          C       0.53903   0.50699   0.34048   0.14786
C          C       0.49441   0.03678   0.36118   0.15311
C          C       0.96676   0.46231   0.35015   0.15998
C          C       0.46240   0.50006   0.37613   0.14812
C          C       0.50545   0.96582   0.31221   0.15743
C          C       0.03399   0.54080   0.35085   0.15766
C          C       0.50414   0.46981   0.36013   0.12432
C          C       0.53268   0.03794   0.32420   0.12961
C          C       0.96230   0.49613   0.33705   0.14062
C          C       0.49738   0.53734   0.35713   0.12382
C          C       0.46743   0.96510   0.35282   0.13385
C          C       0.03845   0.50698   0.36387   0.14226
C          C       0.46542   0.46519   0.37887  -0.26067
C          C       0.53924   0.00305   0.29729  -0.26016
C          C       0.99503   0.53570   0.33667  -0.25912
C          C       0.53610   0.54200   0.33898  -0.26183
C          C       0.46071  -0.00028   0.37790  -0.25933
C          C       0.00571   0.46744   0.36443  -0.26066
C          C       0.66573   0.36551   0.85932   0.57925
C          C       0.63138   0.29965   0.87657   0.58051
C          C       0.69973   0.33324   0.87604   0.58728
C          C       0.33360   0.62954   0.84411   0.57971
C          C       0.36849   0.69586   0.83033   0.57728
C          C       0.30061   0.66399   0.84126   0.58573
C          C       0.63847   0.41047   0.84226   0.25961
C          C       0.58356   0.22554   0.87456   0.26277
C          C       0.77351   0.35857   0.86558   0.25802
C          C       0.35933   0.58287   0.85649   0.26033
C          C       0.41562   0.76850   0.82087   0.26152
C          C       0.22719   0.63954   0.85577   0.25768
C          C       0.65422   0.45280   0.84508  -0.19668
C          C       0.54064   0.19419   0.83230  -0.18573
C          C       0.80018   0.34353   0.86859  -0.19252
C          C       0.34343   0.54221   0.86822  -0.19743
C          C       0.45778   0.79524   0.81865  -0.19117
C          C       0.20069   0.65481   0.85335  -0.18902
C          C       0.62801   0.46813   0.84552  -0.07509
C          C       0.52477   0.15164   0.82418  -0.07354
C          C       0.84158   0.36850   0.85757  -0.08505
C          C       0.36928   0.52687   0.87293  -0.07845
C          C       0.47318   0.83718   0.82210  -0.07412
C          C       0.15897   0.62912   0.85764  -0.08937
C          C       0.58539   0.44133   0.84374  -0.00247
C          C       0.55159   0.13966   0.85909  -0.00558
C          C       0.85721   0.40900   0.84296  -0.01196
C          C       0.41164   0.55200   0.86579  -0.00286
C          C       0.44664   0.85302   0.82536   0.00086
C          C       0.14290   0.58760   0.86453  -0.01279
C          C       0.57028   0.39870   0.83789  -0.10582
C          C       0.59449   0.17180   0.90264  -0.10525
C          C       0.82978   0.42309   0.83845  -0.11405
C          C       0.42676   0.59263   0.85415  -0.10354
C          C       0.40455   0.82549   0.82640  -0.10759
C          C       0.17014   0.57329   0.86897  -0.11356
C          C       0.59625   0.38270   0.83672  -0.19225
C          C       0.61094   0.21483   0.91151  -0.20989
C          C       0.78804   0.39844   0.85026  -0.20394
C          C       0.40113   0.60847   0.84880  -0.19501
C          C       0.38853   0.78326   0.82361  -0.20837
C          C       0.21219   0.59875   0.86425  -0.20355
C          C       0.55888   0.45859   0.84541   0.29224
C          C       0.53426   0.09508   0.85245   0.30067
C          C       0.90103   0.43491   0.83680   0.28599
C          C       0.43806   0.53517   0.87063   0.29509
C          C       0.46346   0.89683   0.82626   0.29704
C          C       0.09890   0.56111   0.86510   0.28394
C          C       0.53691   0.50074   0.84236   0.14666
C          C       0.49310   0.03111   0.86140   0.15677
C          C       0.96637   0.45874   0.85028   0.15807
C          C       0.46027   0.49372   0.87933   0.15064
C          C       0.50415   0.96012   0.81196   0.15393
C          C       0.03352   0.53703   0.84922   0.15313
C          C       0.50220   0.46380   0.86427   0.12333
C          C       0.53138   0.03229   0.82451   0.13425
C          C       0.96188   0.49244   0.83619   0.13864
C          C       0.49501   0.53069   0.85782   0.12322
C          C       0.46606   0.95926   0.85161   0.13184
C          C       0.03798   0.50330   0.86314   0.14191
C          C       0.46352   0.45921   0.88404  -0.26032
C          C       0.53793   0.99742   0.79714  -0.25774
C          C       0.99455   0.53186   0.83445  -0.25213
C          C       0.53374   0.53542   0.83882  -0.25780
C          C       0.45935   0.99394   0.87693  -0.26284
C          C       0.00531   0.46384   0.86449  -0.25917
N          N       0.63033   0.33824   0.36390  -0.51410
N          N       0.66530   0.30235   0.38035  -0.52249
N          N       0.70330   0.37313   0.36553  -0.52397
N          N       0.37076   0.66759   0.33924  -0.51665
N          N       0.33537   0.70359   0.32856  -0.52336
N          N       0.29799   0.63290   0.34406  -0.52211
N          N       0.57320   0.50237   0.32888  -0.40299
N          N       0.49727   0.07576   0.37552  -0.41038
N          N       0.92870   0.42769   0.35136  -0.40236
N          N       0.42816   0.50447   0.38543  -0.40467
N          N       0.50243   0.92660   0.29604  -0.41093
N          N       0.07210   0.57579   0.35255  -0.40177
N          N       0.51891   0.44265   0.35530  -0.35004
N          N       0.55841   0.07984   0.32424  -0.34642
N          N       0.92028   0.48029   0.33349  -0.34549
N          N       0.48258   0.56433   0.36034  -0.34800
N          N       0.44185   0.92354   0.35570  -0.35174
N          N       0.08057   0.52321   0.37004  -0.34283
N          N       0.62946   0.33285   0.86557  -0.51560
N          N       0.66517   0.29785   0.88422  -0.52652
N          N       0.70233   0.36797   0.86392  -0.52212
N          N       0.36999   0.66197   0.83730  -0.51399
N          N       0.33514   0.69887   0.83068  -0.51992
N          N       0.29742   0.62832   0.84680  -0.52314
N          N       0.57107   0.49610   0.83002  -0.40414
N          N       0.49607   0.07024   0.87663  -0.41305
N          N       0.92829   0.42397   0.85038  -0.40242
N          N       0.42590   0.49792   0.88810  -0.40375
N          N       0.50129   0.92112   0.79709  -0.40924
N          N       0.07165   0.57194   0.85042  -0.39898
N          N       0.51709   0.43681   0.86001  -0.34723
N          N       0.55727   0.07433   0.82547  -0.35161
N          N       0.91981   0.47642   0.83128  -0.34136
N          N       0.48009   0.55740   0.85957  -0.35161
N          N       0.44064   0.91786   0.85557  -0.34622
N          N       0.08008   0.51947   0.86928  -0.34504
O          O       0.67149   0.40761   0.35176  -0.22674
O          O       0.59416   0.27227   0.37821  -0.22081
O          O       0.73309   0.33321   0.37542  -0.22161
O          O       0.32987   0.59806   0.35127  -0.22696
O          O       0.40636   0.73355   0.32443  -0.22320
O          O       0.26792   0.67308   0.34025  -0.22051
O          O       0.66964   0.40104   0.84400  -0.22799
O          O       0.59380   0.26690   0.87946  -0.22099
O          O       0.73311   0.32967   0.88183  -0.22104
O          O       0.32866   0.59261   0.85064  -0.22792
O          O       0.40575   0.72771   0.82053  -0.22281
O          O       0.26787   0.66921   0.84604  -0.22070

