data_crystal

_audit_creation_method 'AiiDA-DDEC plugin'

_cell_length_a        29.66406
_cell_length_b        29.69931
_cell_length_c         8.97142

_cell_angle_alpha     125.72722
_cell_angle_beta     70.95869
_cell_angle_gamma     118.07754

_symmetry_space_group_name_Hall 'P 1'
_symmetry_space_group_name_H-M  'P 1'

loop_
_symmetry_equiv_pos_as_xyz
 'x,y,z'

loop_
_atom_site_label
_atom_site_type_symbol
_atom_site_fract_x
_atom_site_fract_y
_atom_site_fract_z
_atom_site_charge
H          H       0.40997   0.34692   0.26058   0.11234
H          H       0.67646   0.00688   0.98854   0.11507
H          H       0.03231   0.67506   0.33105   0.09975
H          H       0.58962   0.68168   0.32541   0.12153
H          H       0.35136   0.96242   0.31692   0.12179
H          H       0.11841   0.46921   0.22463   0.10121
H          H       0.56495   0.62340   0.10513   0.10617
H          H       0.39373   0.94635   0.11414   0.10687
H          H       0.09420   0.43988   0.01318   0.11946
H          H       0.42996   0.35482   0.06244   0.13342
H          H       0.67875   0.08028   0.17751   0.12070
H          H       0.99052   0.65963   0.18772   0.12328
H          H       0.63210   0.65369   0.12497   0.11680
H          H       0.36882   0.00189   0.19930   0.11492
H          H       0.08037   0.39168   0.09452   0.11554
H          H       0.36465   0.34265   0.15453   0.10607
H          H       0.63827   0.03993   0.99334   0.11315
H          H       0.04080   0.63022   0.08488   0.10003
H          H       0.59064   0.51818   0.23570   0.11781
H          H       0.50741   0.10879   0.36682   0.12398
H          H       0.94854   0.42595   0.20958   0.13819
H          H       0.41643   0.50952   0.30370   0.11670
H          H       0.53173   0.92931   0.18150   0.12222
H          H       0.07309   0.61406   0.23809   0.11960
H          H       0.43330   0.54493   0.11507   0.24168
H          H       0.46877   0.85844   0.08219   0.25177
H          H       0.14295   0.55843   0.03761   0.26683
H          H       0.59018   0.43871   0.13933   0.24939
H          H       0.57714   0.13537   0.17291   0.26006
H          H       0.87911   0.44731   0.35803   0.27170
H          H       0.28576   0.57534   0.14598   0.11297
H          H       0.43863   0.69904   0.13346   0.12291
H          H       0.30996   0.72064   0.09348   0.12527
H          H       0.73233   0.44145   0.26965   0.11659
H          H       0.58492   0.30366   0.24145   0.11686
H          H       0.71774   0.30250   0.33576   0.12767
H          H       0.36264   0.55334   0.10452   0.08441
H          H       0.45255   0.77159   0.05311   0.09587
H          H       0.22438   0.62958   0.01758   0.09148
H          H       0.65860   0.43278   0.16920   0.08395
H          H       0.57943   0.21703   0.22097   0.08914
H          H       0.79941   0.38787   0.39339   0.10143
H          H       0.40862   0.32973   0.70154   0.11310
H          H       0.62771   0.06423   0.71895   0.11638
H          H       0.00579   0.62417   0.81205   0.09535
H          H       0.57951   0.67387   0.80056   0.12283
H          H       0.29782   0.92097   0.81244   0.11436
H          H       0.09389   0.40490   0.65559   0.11038
H          H       0.55507   0.60594   0.59273   0.10253
H          H       0.33238   0.90736   0.59293   0.12759
H          H       0.06751   0.38566   0.46385   0.10482
H          H       0.43584   0.34517   0.51824   0.12729
H          H       0.59513   0.04125   0.53583   0.10379
H          H       0.96180   0.60886   0.67602   0.12325
H          H       0.62196   0.63728   0.62171   0.11134
H          H       0.30115   0.95969   0.70925   0.10890
H          H       0.04939   0.33069   0.52172   0.10974
H          H       0.36764   0.31895   0.56375   0.10734
H          H       0.63013  -0.00039   0.49530   0.11723
H          H       0.01329   0.58149   0.56534   0.09431
H          H       0.57796   0.51848   0.78824   0.12318
H          H       0.44575   0.07574   0.84809   0.13079
H          H       0.92657   0.37420   0.67425   0.13560
H          H       0.40290   0.49073   0.76704   0.11773
H          H       0.48412   0.90206   0.63621   0.11826
H          H       0.04882   0.56440   0.71265   0.11289
H          H       0.41288   0.52733   0.62434   0.25115
H          H       0.42503   0.82891   0.54020   0.24855
H          H       0.11825   0.55038   0.58518   0.27116
H          H       0.57789   0.43084   0.63958   0.25490
H          H       0.52403   0.11635   0.67410   0.24995
H          H       0.85414   0.43221   0.88898   0.26943
H          H       0.26461   0.54989   0.64181   0.11250
H          H       0.41435   0.67809   0.62169   0.12250
H          H       0.27975   0.69317   0.59696   0.12320
H          H       0.71680   0.41512   0.75504   0.11373
H          H       0.56100   0.29454   0.74438   0.11620
H          H       0.68110   0.27120   0.83265   0.13120
H          H       0.34244   0.53376   0.61252   0.08347
H          H       0.42170   0.74917   0.53736   0.09202
H          H       0.19663   0.61248   0.56049   0.09945
H          H       0.64723   0.41928   0.66298   0.08906
H          H       0.54413   0.20298   0.70614   0.07965
H          H       0.77041   0.36041   0.90869   0.09523
C          C       0.39745   0.68614   0.13812  -0.16227
C          C       0.32473   0.69708   0.11226  -0.15150
C          C       0.31178   0.61519   0.14020  -0.16900
C          C       0.62553   0.32405   0.26317  -0.16806
C          C       0.70063   0.32378   0.31558  -0.15665
C          C       0.70819   0.40163   0.27774  -0.18742
C          C       0.37770   0.71770   0.12257   0.08399
C          C       0.29159   0.64602   0.12213   0.07322
C          C       0.36465   0.63507   0.14846   0.07266
C          C       0.64807   0.29694   0.28866   0.07890
C          C       0.73099   0.37539   0.30703   0.07497
C          C       0.65534   0.37701   0.25991   0.06525
C          C       0.46016   0.46637   0.28292   0.23209
C          C       0.56873   0.01623   0.22463   0.21549
C          C       0.99357   0.55598   0.21365   0.22085
C          C       0.54639   0.55927   0.24987   0.22198
C          C       0.46914   0.02000   0.31123   0.23557
C          C       0.02675   0.48433   0.23202   0.21211
C          C       0.45520   0.51136   0.28607  -0.22946
C          C       0.52493   0.96770   0.21822  -0.22340
C          C       0.04514   0.57255   0.22886  -0.24969
C          C       0.55147   0.51395   0.24597  -0.22482
C          C       0.51326   0.06924   0.32468  -0.24233
C          C       0.97498   0.46797   0.21840  -0.19358
C          C       0.48459   0.60950   0.31860   0.45755
C          C       0.43046   0.91767   0.27502   0.45273
C          C       0.11588   0.56400   0.28934   0.46781
C          C       0.51938   0.42757   0.29168   0.45928
C          C       0.60709   0.12787   0.33363   0.44362
C          C       0.90258   0.48138   0.18186   0.46054
C          C       0.49676   0.55951   0.27822  -0.12329
C          C       0.47497   0.96795   0.26222  -0.13635
C          C       0.06207   0.53795   0.24112  -0.10899
C          C       0.51011   0.46814   0.26703  -0.10598
C          C       0.56315   0.06948   0.28662  -0.12187
C          C       0.95752   0.50273   0.21002  -0.11090
C          C       0.38521   0.60106   0.15899  -0.00160
C          C       0.41361   0.77084   0.11342  -0.01168
C          C       0.23647   0.62435   0.10827   0.02887
C          C       0.63285   0.40542   0.23024  -0.00820
C          C       0.61696   0.23971   0.27558   0.01251
C          C       0.78602   0.39900   0.32270  -0.00311
C          C       0.59434   0.64237   0.19535  -0.18392
C          C       0.38184   0.98158   0.23898  -0.17618
C          C       0.08622   0.43675   0.13602  -0.19382
C          C       0.40453   0.36343   0.18847  -0.19232
C          C       0.65442   0.03605   0.07790  -0.19113
C          C       0.01244   0.64159   0.20297  -0.18250
C          C       0.37285   0.66314   0.62714  -0.16020
C          C       0.29675   0.67071   0.61206  -0.15808
C          C       0.28885   0.59007   0.63593  -0.18277
C          C       0.60107   0.30900   0.76197  -0.16423
C          C       0.66899   0.29661   0.81277  -0.13566
C          C       0.68840   0.37709   0.76707  -0.17063
C          C       0.35025   0.69269   0.61407   0.08613
C          C       0.26586   0.61998   0.62513   0.06900
C          C       0.34212   0.61184   0.63898   0.07114
C          C       0.61695   0.27681   0.78891   0.07848
C          C       0.70491   0.34650   0.80025   0.07368
C          C       0.63643   0.35950   0.75231   0.06511
C          C       0.44837   0.45274   0.76365   0.23989
C          C       0.51569   0.99048   0.69570   0.21712
C          C       0.97017   0.50539   0.68891   0.22601
C          C       0.53306   0.55382   0.77319   0.22322
C          C       0.41273   0.98516   0.77686   0.24406
C          C       0.00463   0.43350   0.70011   0.22299
C          C       0.44205   0.49729   0.76871  -0.23900
C          C       0.47421   0.93901   0.67807  -0.23103
C          C       0.02178   0.52274   0.70431  -0.23787
C          C       0.53913   0.51057   0.77753  -0.21878
C          C       0.45450   0.03713   0.79723  -0.21509
C          C       0.95268   0.41683   0.68698  -0.20723
C          C       0.47052   0.59594   0.80083   0.45230
C          C       0.38254   0.88309   0.73740   0.44859
C          C       0.09439   0.51129   0.74658   0.45293
C          C       0.50780   0.41966   0.79619   0.45665
C          C       0.54684   0.10196   0.83270   0.46364
C          C       0.88080   0.42720   0.63694   0.47919
C          C       0.48281   0.54849   0.77628  -0.12834
C          C       0.42286   0.93510   0.72290  -0.12130
C          C       0.03990   0.48780   0.71178  -0.13000
C          C       0.49833   0.46043   0.77446  -0.11066
C          C       0.50560   0.04180   0.76500  -0.13800
C          C       0.93500   0.45129   0.67950  -0.08420
C          C       0.36506   0.58057   0.65248  -0.00918
C          C       0.38221   0.74507   0.59731  -0.01456
C          C       0.21061   0.59904   0.62218   0.00897
C          C       0.61927   0.39235   0.72298  -0.01175
C          C       0.57862   0.22075   0.77309   0.01584
C          C       0.75968   0.36674   0.81791   0.01785
C          C       0.58360   0.63105   0.69261  -0.17817
C          C       0.32146   0.94075   0.72786  -0.19089
C          C       0.05975   0.37818   0.57759  -0.19106
C          C       0.40455   0.34595   0.62580  -0.18799
C          C       0.60643   0.02569   0.59795  -0.18308
C          C       0.98537   0.59129   0.68516  -0.18247
N          N       0.44557   0.58890   0.21687  -0.24647
N          N       0.43593   0.86244   0.16419  -0.24505
N          N       0.15316   0.57738   0.16887  -0.24146
N          N       0.56815   0.42488   0.22971  -0.23852
N          N       0.60057   0.15899   0.27839  -0.25219
N          N       0.86795   0.45254   0.27254  -0.23201
N          N       0.42831   0.62654   0.23063  -0.09891
N          N       0.40004   0.81523   0.18098  -0.10298
N          N       0.20396   0.59982   0.20114  -0.12809
N          N       0.58477   0.39841   0.27319  -0.12010
N          N       0.63345   0.21547   0.31856  -0.10096
N          N       0.81699   0.43117   0.25048  -0.12910
N          N       0.42818   0.57252   0.70936  -0.25065
N          N       0.39330   0.83104   0.63001  -0.24247
N          N       0.12901   0.54476   0.67034  -0.24111
N          N       0.55655   0.41705   0.73088  -0.23680
N          N       0.54739   0.13613   0.77521  -0.23635
N          N       0.84377   0.41312   0.75770  -0.23733
N          N       0.41004   0.60764   0.71339  -0.09098
N          N       0.36306   0.78429   0.65515  -0.09505
N          N       0.18017   0.56527   0.68962  -0.14245
N          N       0.57194   0.38841   0.76825  -0.11715
N          N       0.58471   0.19152   0.82476  -0.09668
N          N       0.79316   0.39143   0.72666  -0.11659
O          O       0.50429   0.66197   0.43718  -0.45116
O          O       0.39225   0.92438   0.38007  -0.44619
O          O       0.12472   0.57541   0.43692  -0.49842
O          O       0.48806   0.40126   0.37098  -0.46577
O          O       0.64200   0.14650   0.42397  -0.45549
O          O       0.88917   0.48780   0.08005  -0.48045
O          O       0.59218   0.59910   0.22788  -0.17389
O          O       0.42442   0.02873   0.35290  -0.17796
O          O       0.03892   0.44546   0.23437  -0.17735
O          O       0.41460   0.42688   0.30909  -0.18872
O          O       0.61396   0.00697   0.17077  -0.17765
O          O       0.97542   0.58952   0.20795  -0.14340
O          O       0.49344   0.64974   0.89938  -0.44686
O          O       0.34437   0.88615   0.84615  -0.44411
O          O       0.10795   0.50249   0.84241  -0.50014
O          O       0.47647   0.39267   0.87359  -0.46700
O          O       0.57733   0.12043   0.94045  -0.47956
O          O       0.87121   0.41689   0.49259  -0.48733
O          O       0.57824   0.59792   0.77172  -0.17354
O          O       0.36642   0.99073   0.82194  -0.16816
O          O       0.01621   0.39298   0.69547  -0.17480
O          O       0.40423   0.40581   0.75179  -0.18144
O          O       0.56266   0.98543   0.64697  -0.17685
O          O       0.95000   0.53804   0.68693  -0.16363

