data_crystal

_audit_creation_method 'AiiDA-DDEC plugin'

_cell_length_a        35.45743
_cell_length_b        35.60735
_cell_length_c         7.93774

_cell_angle_alpha     80.13214
_cell_angle_beta     120.40379
_cell_angle_gamma     120.12335

_symmetry_space_group_name_Hall 'P 1'
_symmetry_space_group_name_H-M  'P 1'

loop_
_symmetry_equiv_pos_as_xyz
 'x,y,z'

loop_
_atom_site_label
_atom_site_type_symbol
_atom_site_fract_x
_atom_site_fract_y
_atom_site_fract_z
_atom_site_charge
H          H       0.55374   0.23739   0.24745   0.11398
H          H       0.75743   0.31478   0.24389   0.11473
H          H       0.67921   0.44048   0.23383   0.11571
H          H       0.44428   0.76140   0.26663   0.11458
H          H       0.23749   0.67956   0.24602   0.11504
H          H       0.31938   0.55709   0.25706   0.11240
H          H       0.51102   0.15606   0.24864   0.12114
H          H       0.83990   0.35365   0.24916   0.12261
H          H       0.63971   0.48324   0.22573   0.12408
H          H       0.48629   0.84292   0.27290   0.12256
H          H       0.15508   0.63980   0.24083   0.12262
H          H       0.35888   0.51516   0.25762   0.12362
H          H       0.63282   0.15349   0.26425   0.11735
H          H       0.84498   0.47646   0.26050   0.11905
H          H       0.51988   0.36506   0.25462   0.11740
H          H       0.36318   0.84258   0.25895   0.11677
H          H       0.15208   0.51788   0.23148   0.11808
H          H       0.47910   0.63468   0.23988   0.11712
H          H       0.67473   0.23439   0.26136   0.11432
H          H       0.76295   0.43737   0.25562   0.11468
H          H       0.55972   0.32300   0.26288   0.11306
H          H       0.32166   0.76141   0.25201   0.11354
H          H       0.23411   0.55791   0.23607   0.11497
H          H       0.43961   0.67604   0.24112   0.11495
H          H       0.42352   0.99416   0.26183   0.16181
H          H       0.00428   0.42746   0.26041   0.16174
H          H       0.57132   0.57370   0.25254   0.16078
H          H       0.57251   0.00357   0.26143   0.16184
H          H       0.99235   0.56602   0.23646   0.16161
H          H       0.42786   0.42580   0.23350   0.15984
H          H       0.55864   0.24047   0.76278   0.11433
H          H       0.76105   0.31900   0.74474   0.11468
H          H       0.68165   0.44298   0.73534   0.11470
H          H       0.44431   0.76348   0.74463   0.11471
H          H       0.24101   0.68367   0.74485   0.11484
H          H       0.32127   0.55988   0.75339   0.11377
H          H       0.51632   0.15928   0.76689   0.12175
H          H       0.84320   0.35852   0.74768   0.12283
H          H       0.64193   0.48578   0.72412   0.12388
H          H       0.48623   0.84494   0.74815   0.12055
H          H       0.15856   0.64483   0.73907   0.12145
H          H       0.36102   0.51790   0.75582   0.12369
H          H       0.63355   0.15577   0.74657   0.11634
H          H       0.84655   0.48063   0.75651   0.11802
H          H       0.52238   0.36795   0.75595   0.11832
H          H       0.36939   0.84603   0.78216   0.11748
H          H       0.15399   0.52210   0.73131   0.11820
H          H       0.48260   0.63765   0.74811   0.11585
H          H       0.67555   0.23663   0.74421   0.11349
H          H       0.76476   0.44085   0.75366   0.11465
H          H       0.56209   0.32570   0.76562   0.11462
H          H       0.32794   0.76495   0.77763   0.11197
H          H       0.23604   0.56121   0.73608   0.11369
H          H       0.44275   0.67902   0.74658   0.11401
H          H       0.43026   0.99734   0.79000   0.15904
H          H       0.00697   0.43258   0.75802   0.16244
H          H       0.57449   0.57653   0.76014   0.16261
H          H       0.57204   0.00553   0.73495   0.15870
H          H       0.99437   0.57089   0.73023   0.16188
H          H       0.42947   0.42836   0.72832   0.15987
C          C       0.64218   0.28864   0.25346   0.37278
C          C       0.70739   0.35134   0.25023   0.36982
C          C       0.64431   0.35382   0.24921   0.37255
C          C       0.35516   0.70833   0.25288   0.37749
C          C       0.28938   0.64452   0.24557   0.37044
C          C       0.35391   0.64372   0.25117   0.37169
C          C       0.62173   0.37913   0.24875   0.00419
C          C       0.61700   0.24082   0.25549   0.00596
C          C       0.75533   0.37384   0.24974   0.00316
C          C       0.37710   0.61917   0.24933   0.00551
C          C       0.38017   0.75637   0.25737   0.00555
C          C       0.24087   0.62111   0.24229   0.00448
C          C       0.57051   0.21861   0.25048  -0.10055
C          C       0.77711   0.35010   0.24810  -0.09978
C          C       0.64457   0.42454   0.23946  -0.09652
C          C       0.42702   0.77955   0.26547  -0.09945
C          C       0.21832   0.64422   0.24259  -0.10005
C          C       0.35421   0.57355   0.25282  -0.09196
C          C       0.54681   0.17356   0.25131  -0.09618
C          C       0.82268   0.37151   0.25127  -0.09459
C          C       0.62272   0.44820   0.23468  -0.10238
C          C       0.45037   0.82470   0.26906  -0.09893
C          C       0.17271   0.62228   0.23930  -0.09083
C          C       0.37610   0.55034   0.25348  -0.10369
C          C       0.56929   0.14972   0.25751   0.00126
C          C       0.84743   0.41731   0.25493   0.01190
C          C       0.57739   0.42686   0.23889   0.00227
C          C       0.42729   0.84781   0.26483   0.00318
C          C       0.14862   0.57649   0.23698   0.01095
C          C       0.42156   0.57223   0.25016   0.00263
C          C       0.61568   0.17185   0.26164  -0.11465
C          C       0.82574   0.44113   0.25655  -0.11879
C          C       0.55451   0.38145   0.24871  -0.11207
C          C       0.38070   0.82478   0.25909  -0.11263
C          C       0.17087   0.55322   0.23509  -0.11901
C          C       0.44448   0.61782   0.24590  -0.10862
C          C       0.63917   0.21691   0.26040  -0.09635
C          C       0.78012   0.41951   0.25337  -0.09300
C          C       0.57666   0.35799   0.25381  -0.09884
C          C       0.35749   0.77957   0.25531  -0.09883
C          C       0.21652   0.57539   0.23816  -0.09297
C          C       0.42239   0.64089   0.24570  -0.10462
C          C       0.55587   0.45230   0.23846   0.32635
C          C       0.54440   0.10285   0.26085   0.33008
C          C       0.89449   0.43902   0.25445   0.32349
C          C       0.44309   0.54708   0.24740   0.32414
C          C       0.45197   0.89479   0.26387   0.32684
C          C       0.10177   0.55448   0.23957   0.32434
C          C       0.49461   0.03581   0.26246   0.13346
C          C       0.96179   0.45635   0.25425   0.12606
C          C       0.54014   0.50277   0.24421   0.13816
C          C       0.50165   0.96188   0.26287   0.13414
C          C       0.03480   0.53713   0.24272   0.13502
C          C       0.45894   0.49674   0.24123   0.13814
C          C       0.53564   0.03736   0.26441   0.15819
C          C       0.95954   0.49539   0.24701   0.15654
C          C       0.49963   0.46222   0.23809   0.15846
C          C       0.46059   0.96027   0.26098   0.15888
C          C       0.03720   0.49812   0.25082   0.15559
C          C       0.49936   0.53730   0.24690   0.15911
C          C       0.45495   0.99607   0.26102  -0.25036
C          C       0.00189   0.45684   0.25657  -0.23461
C          C       0.54093   0.54238   0.24877  -0.24118
C          C       0.54124   0.00159   0.26387  -0.24744
C          C       0.99480   0.53666   0.24084  -0.23620
C          C       0.45814   0.45713   0.23666  -0.24081
C          C       0.64496   0.29149   0.75306   0.37654
C          C       0.71008   0.35455   0.75047   0.36854
C          C       0.64691   0.35655   0.75107   0.36967
C          C       0.35829   0.71135   0.75481   0.37667
C          C       0.29215   0.64773   0.74599   0.36497
C          C       0.35648   0.64660   0.75145   0.37327
C          C       0.62416   0.38171   0.75034   0.00628
C          C       0.61988   0.24360   0.75449   0.00308
C          C       0.75806   0.37759   0.74957   0.00663
C          C       0.37960   0.62200   0.74978   0.00551
C          C       0.38339   0.75930   0.75934   0.00376
C          C       0.24363   0.62476   0.74217   0.00940
C          C       0.57457   0.22153   0.75903  -0.10049
C          C       0.78029   0.35433   0.74790  -0.09746
C          C       0.64690   0.42709   0.74019  -0.09631
C          C       0.42848   0.78199   0.75339  -0.10110
C          C       0.22152   0.64837   0.74192  -0.10383
C          C       0.35640   0.57634   0.75132  -0.09324
C          C       0.55101   0.17651   0.76097  -0.09831
C          C       0.82576   0.37614   0.75003  -0.09179
C          C       0.62498   0.45080   0.73420  -0.10235
C          C       0.45175   0.82709   0.75548  -0.09608
C          C       0.17590   0.62696   0.73824  -0.09345
C          C       0.37837   0.55312   0.75289  -0.10444
C          C       0.57226   0.15241   0.75739   0.00040
C          C       0.85000   0.42193   0.75250   0.00548
C          C       0.57966   0.42956   0.73849  -0.00001
C          C       0.43037   0.85054   0.76440  -0.00117
C          C       0.15142   0.58120   0.73647   0.01245
C          C       0.42426   0.57508   0.75285   0.00270
C          C       0.61740   0.17436   0.75151  -0.11486
C          C       0.82780   0.44530   0.75385  -0.11535
C          C       0.55692   0.38420   0.74937  -0.11255
C          C       0.38553   0.82795   0.77241  -0.11575
C          C       0.17319   0.55743   0.73489  -0.11984
C          C       0.44753   0.62074   0.75076  -0.10875
C          C       0.64089   0.21943   0.75024  -0.09621
C          C       0.78231   0.42328   0.75192  -0.09480
C          C       0.57907   0.36066   0.75546  -0.10060
C          C       0.36235   0.78278   0.76982  -0.09737
C          C       0.21881   0.57908   0.73791  -0.09130
C          C       0.42530   0.64381   0.74913  -0.10258
C          C       0.55813   0.45502   0.73809   0.32648
C          C       0.54745   0.10554   0.76112   0.32923
C          C       0.89696   0.44388   0.75082   0.32526
C          C       0.44579   0.54986   0.75062   0.32823
C          C       0.45496   0.89746   0.76294   0.33196
C          C       0.10454   0.55955   0.73848   0.32522
C          C       0.49862   0.03865   0.76970   0.13470
C          C       0.96420   0.46133   0.74991   0.13537
C          C       0.54263   0.50551   0.74606   0.13749
C          C       0.50373   0.96438   0.75505   0.13478
C          C       0.03726   0.54219   0.73878   0.13174
C          C       0.46120   0.49940   0.74154   0.13626
C          C       0.53764   0.03982   0.75624   0.15676
C          C       0.96175   0.50030   0.74144   0.15529
C          C       0.50185   0.46493   0.73770   0.15793
C          C       0.46472   0.96315   0.76876   0.15555
C          C       0.03971   0.50322   0.74747   0.15692
C          C       0.50206   0.54001   0.75055   0.15857
C          C       0.46012  -0.00089   0.77690  -0.24669
C          C       0.00440   0.46189   0.75299  -0.23897
C          C       0.54371   0.54515   0.75307  -0.24115
C          C       0.54224   0.00388   0.74808  -0.24871
C          C       0.99697   0.54160   0.73523  -0.23764
C          C       0.46016   0.45977   0.73487  -0.23795
N          N       0.61966   0.31018   0.25035  -0.41128
N          N       0.68613   0.30770   0.25472  -0.41097
N          N       0.68796   0.37583   0.24730  -0.40959
N          N       0.37852   0.68758   0.25609  -0.41302
N          N       0.31047   0.68828   0.24597  -0.41056
N          N       0.30960   0.62079   0.24803  -0.40880
N          N       0.50189   0.07795   0.26108  -0.38151
N          N       0.91998   0.42171   0.25882  -0.38158
N          N       0.57472   0.49484   0.24487  -0.38378
N          N       0.49447   0.91982   0.26385  -0.38120
N          N       0.07625   0.57173   0.23557  -0.38748
N          N       0.42437   0.50456   0.24118  -0.38282
N          N       0.62246   0.31288   0.75199  -0.41184
N          N       0.68881   0.31083   0.75304  -0.41013
N          N       0.69057   0.37880   0.74919  -0.40828
N          N       0.38143   0.69046   0.75759  -0.41330
N          N       0.31362   0.69150   0.74776  -0.40887
N          N       0.31204   0.62379   0.74732  -0.40840
N          N       0.50653   0.08092   0.77324  -0.38144
N          N       0.92258   0.42666   0.75560  -0.38470
N          N       0.57718   0.49758   0.74631  -0.38380
N          N       0.49588   0.92219   0.75095  -0.38269
N          N       0.07893   0.57683   0.73327  -0.38516
N          N       0.42663   0.50728   0.74108  -0.38477
O          O       0.56774   0.08049   0.26410  -0.18279
O          O       0.91623   0.48420   0.24710  -0.18955
O          O       0.50968   0.42976   0.23354  -0.18863
O          O       0.42852   0.91702   0.26105  -0.18193
O          O       0.08044   0.50939   0.24959  -0.18870
O          O       0.48917   0.56971   0.25127  -0.18792
O          O       0.56904   0.08284   0.75082  -0.18053
O          O       0.91838   0.48899   0.74155  -0.18903
O          O       0.51180   0.43247   0.73210  -0.18700
O          O       0.43334   0.92005   0.77401  -0.18051
O          O       0.08309   0.51446   0.74804  -0.18979
O          O       0.49221   0.57247   0.75758  -0.19085

