data_crystal

_audit_creation_method 'AiiDA-DDEC plugin'

_cell_length_a        31.73032
_cell_length_b        31.80241
_cell_length_c         8.00988

_cell_angle_alpha     121.69299
_cell_angle_beta     81.42205
_cell_angle_gamma     120.01801

_symmetry_space_group_name_Hall 'P 1'
_symmetry_space_group_name_H-M  'P 1'

loop_
_symmetry_equiv_pos_as_xyz
 'x,y,z'

loop_
_atom_site_label
_atom_site_type_symbol
_atom_site_fract_x
_atom_site_fract_y
_atom_site_fract_z
_atom_site_charge
H          H       0.71248   0.45919   0.23706   0.13048
H          H       0.53823   0.24765   0.21691   0.13131
H          H       0.74810   0.28964   0.26299   0.12922
H          H       0.28720   0.54306   0.26390   0.12820
H          H       0.46072   0.74472   0.22461   0.13182
H          H       0.25367   0.71687   0.26216   0.13013
H          H       0.45270   0.68265   0.23580   0.13163
H          H       0.31742   0.77196   0.26169   0.12965
H          H       0.23057   0.54426   0.21656   0.13048
H          H       0.54680   0.31520   0.24534   0.13115
H          H       0.68513   0.23757   0.28449   0.12876
H          H       0.76743   0.44779   0.21835   0.12666
H          H       0.93636   0.51596   0.22326   0.12092
H          H       0.47903   0.41584   0.23804   0.12523
H          H       0.58386   0.07111   0.30146   0.12756
H          H       0.06269   0.47996   0.23694   0.12671
H          H       0.51858   0.58088   0.24050   0.12206
H          H       0.41971   0.94172   0.27507   0.12042
H          H       0.00218   0.43759   0.31530   0.11323
H          H       0.57520   0.57785   0.27704   0.11147
H          H       0.42509   0.99202   0.18719   0.11694
H          H       0.00258   0.58210   0.29002   0.11416
H          H       0.42485   0.43071   0.27806   0.11064
H          H       0.57227   0.99342   0.20182   0.11183
H          H       0.91980   0.36389   0.30486   0.12753
H          H       0.64647   0.56522   0.26159   0.13204
H          H       0.43490   0.07422   0.18788   0.12799
H          H       0.08482   0.65338   0.28701   0.12694
H          H       0.35330   0.44101   0.27450   0.13237
H          H       0.56210   0.91053   0.19657   0.12897
H          H       0.71417   0.46022   0.75554   0.13009
H          H       0.53693   0.24454   0.69892   0.13199
H          H       0.74664   0.28744   0.77043   0.12910
H          H       0.28753   0.54008   0.75676   0.12857
H          H       0.45907   0.74243   0.71475   0.13129
H          H       0.25320   0.71652   0.78399   0.13006
H          H       0.45262   0.68243   0.73906   0.13099
H          H       0.31505   0.76915   0.76543   0.12872
H          H       0.22995   0.53921   0.69831   0.13228
H          H       0.54664   0.31418   0.73816   0.13180
H          H       0.68326   0.23681   0.79794   0.12673
H          H       0.76779   0.44632   0.72506   0.12727
H          H       0.93613   0.51398   0.73378   0.12236
H          H       0.48027   0.41358   0.72011   0.12528
H          H       0.58057   0.06901   0.80127   0.12690
H          H       0.06133   0.47449   0.72482   0.12797
H          H       0.52028   0.58180   0.74730   0.12379
H          H       0.41726   0.94169   0.78617   0.12163
H          H       0.00096   0.43159   0.80425   0.11376
H          H       0.57752   0.58067   0.79671   0.11291
H          H       0.42214   0.99018   0.68732   0.11681
H          H       0.00246   0.58074   0.80614   0.11496
H          H       0.42713   0.43175   0.78576   0.11314
H          H       0.56848   0.99051   0.69488   0.11428
H          H       0.91831   0.35751   0.78958   0.12820
H          H       0.64866   0.56784   0.77815   0.13064
H          H       0.43226   0.07088   0.67599   0.12798
H          H       0.08494   0.65311   0.80976   0.13025
H          H       0.35532   0.44150   0.78200   0.13193
H          H       0.55884   0.90752   0.68735   0.13048
C          C       0.60729   0.19892   0.26467   0.16442
C          C       0.80389   0.40995   0.24051   0.16518
C          C       0.58820   0.39144   0.23770   0.17140
C          C       0.39420   0.80530   0.24976   0.16055
C          C       0.19597   0.58910   0.23786   0.16686
C          C       0.41075   0.60681   0.24571   0.16171
C          C       0.65417   0.24187   0.27080  -0.18517
C          C       0.76146   0.41330   0.23315  -0.18735
C          C       0.58354   0.34505   0.24013  -0.18189
C          C       0.34752   0.76404   0.25303  -0.18474
C          C       0.23753   0.58296   0.22899  -0.18639
C          C       0.41574   0.65283   0.23948  -0.17902
C          C       0.66049   0.28650   0.25841   0.04091
C          C       0.71497   0.37483   0.24175   0.03567
C          C       0.62365   0.33861   0.24020   0.03493
C          C       0.34044   0.71619   0.24507   0.03945
C          C       0.28463   0.62419   0.23795   0.03568
C          C       0.37582   0.65945   0.23723   0.03751
C          C       0.38966   0.47077   0.26629  -0.14590
C          C       0.53169   0.91849   0.21526  -0.14615
C          C       0.07901   0.61535   0.27684  -0.14110
C          C       0.60961   0.53337   0.25714  -0.15129
C          C       0.46675   0.07258   0.21313  -0.14442
C          C       0.92423   0.39710   0.28544  -0.14515
C          C       0.39453   0.51671   0.25876   0.16150
C          C       0.48543   0.87844   0.23060   0.16582
C          C       0.12072   0.60846   0.26357   0.16520
C          C       0.60425   0.48464   0.24596   0.16970
C          C       0.51437   0.11825   0.23635   0.16647
C          C       0.88101   0.39813   0.26392   0.16696
C          C       0.42989   0.46544   0.26696  -0.11789
C          C       0.53705   0.96472   0.22092  -0.11349
C          C       0.03352   0.57527   0.27775  -0.12205
C          C       0.56954   0.53962   0.26454  -0.11915
C          C       0.46185   0.02751   0.21422  -0.11260
C          C       0.96990   0.43815   0.28937  -0.12266
C          C       0.20289   0.63946   0.25273   0.16384
C          C       0.36245   0.56599   0.25143   0.16398
C          C       0.43565   0.79680   0.23550   0.16272
C          C       0.79812   0.36371   0.25229   0.16551
C          C       0.63652   0.43348   0.23798   0.16010
C          C       0.56451   0.20153   0.24251   0.16238
C          C       0.25061   0.68021   0.25418  -0.18994
C          C       0.32231   0.57366   0.25181  -0.18445
C          C       0.42820   0.74854   0.23161  -0.18175
C          C       0.75053   0.32387   0.25561  -0.19176
C          C       0.67705   0.42632   0.23703  -0.18342
C          C       0.57158   0.24781   0.23398  -0.18393
C          C       0.29127   0.67385   0.24661   0.03903
C          C       0.32745   0.61826   0.24191   0.03821
C          C       0.38226   0.70846   0.23632   0.03434
C          C       0.70929   0.32839   0.25291   0.03960
C          C       0.67201   0.38058   0.23822   0.03753
C          C       0.61781   0.29041   0.24430   0.03408
C          C       0.51483   0.44954   0.24496  -0.19344
C          C       0.55058   0.06961   0.27174  -0.19442
C          C       0.93464   0.48459   0.24703  -0.20040
C          C       0.48354   0.54991   0.25114  -0.19149
C          C       0.45166   0.93656   0.25709  -0.19153
C          C       0.06584   0.51728   0.25008  -0.20404
C          C       0.55558   0.44207   0.24222   0.16774
C          C       0.55745   0.11623   0.26361   0.16917
C          C       0.88679   0.44401   0.24845   0.16968
C          C       0.44299   0.55750   0.25280   0.16859
C          C       0.44428   0.88771   0.24941   0.16411
C          C       0.11366   0.55796   0.24923   0.16945
C          C       0.52060   0.49729   0.25633   0.07170
C          C       0.50394   0.02494   0.24467   0.07093
C          C       0.97632   0.48302   0.26837   0.06814
C          C       0.47825   0.50487   0.25797   0.07192
C          C       0.49694   0.97524   0.24280   0.07020
C          C       0.02572   0.52496   0.26480   0.07460
C          C       0.60500   0.19703   0.76518   0.16426
C          C       0.80340   0.40737   0.74512   0.16741
C          C       0.58914   0.39097   0.73532   0.16428
C          C       0.39205   0.80349   0.75195   0.16471
C          C       0.19522   0.58542   0.73420   0.16829
C          C       0.41138   0.60609   0.74701   0.16402
C          C       0.65235   0.24027   0.77659  -0.17892
C          C       0.76141   0.41149   0.73866  -0.18652
C          C       0.58376   0.34408   0.73615  -0.18254
C          C       0.34567   0.76200   0.75629  -0.18423
C          C       0.23687   0.57894   0.71947  -0.18978
C          C       0.41579   0.65186   0.74042  -0.18185
C          C       0.65929   0.28475   0.76170   0.03561
C          C       0.71478   0.37333   0.74720   0.03438
C          C       0.62350   0.33736   0.73959   0.03675
C          C       0.33939   0.71440   0.74824   0.03620
C          C       0.28407   0.62124   0.73452   0.03653
C          C       0.37554   0.65781   0.73633   0.03791
C          C       0.39149   0.47102   0.77184  -0.14697
C          C       0.52870   0.91615   0.71096  -0.14439
C          C       0.07882   0.61402   0.79272  -0.14326
C          C       0.61165   0.53495   0.76734  -0.14558
C          C       0.46402   0.06987   0.70506  -0.14442
C          C       0.92295   0.39178   0.77642  -0.14649
C          C       0.39606   0.51660   0.76212   0.16371
C          C       0.48271   0.87664   0.72961   0.16230
C          C       0.12023   0.60620   0.77406   0.16748
C          C       0.60609   0.48532   0.74978   0.16497
C          C       0.51172   0.11567   0.72866   0.16653
C          C       0.87991   0.39390   0.76124   0.16390
C          C       0.43196   0.46598   0.77183  -0.12242
C          C       0.53367   0.96235   0.71768  -0.11751
C          C       0.03317   0.57323   0.78948  -0.12293
C          C       0.57165   0.54134   0.77579  -0.11964
C          C       0.45890   0.02543   0.71200  -0.11413
C          C       0.96880   0.43306   0.78286  -0.11948
C          C       0.20236   0.63733   0.76153   0.16305
C          C       0.36317   0.56469   0.75062   0.16121
C          C       0.43352   0.79493   0.73400   0.15888
C          C       0.79714   0.36069   0.75515   0.16459
C          C       0.63792   0.43390   0.74346   0.16637
C          C       0.56243   0.19911   0.73563   0.16399
C          C       0.25005   0.67878   0.76687  -0.18857
C          C       0.32259   0.57142   0.74765  -0.18470
C          C       0.42662   0.74653   0.72724  -0.18100
C          C       0.74943   0.32151   0.76084  -0.18923
C          C       0.67812   0.42662   0.74745  -0.18377
C          C       0.57007   0.24539   0.72490  -0.18350
C          C       0.29065   0.67184   0.75111   0.03778
C          C       0.32722   0.61582   0.73807   0.03936
C          C       0.38126   0.70663   0.73585   0.03472
C          C       0.70850   0.32657   0.75812   0.04095
C          C       0.67229   0.37990   0.74393   0.03841
C          C       0.61678   0.28850   0.74186   0.03861
C          C       0.51627   0.44870   0.73698  -0.19056
C          C       0.54745   0.06745   0.77043  -0.18879
C          C       0.93414   0.48165   0.75241  -0.20042
C          C       0.48523   0.55061   0.75633  -0.19538
C          C       0.44870   0.93539   0.76314  -0.19620
C          C       0.06491   0.51292   0.74554  -0.20645
C          C       0.55707   0.44166   0.73737   0.16691
C          C       0.55440   0.11389   0.76079   0.16325
C          C       0.88618   0.44076   0.75149   0.17488
C          C       0.44441   0.55776   0.75736   0.16894
C          C       0.44158   0.88632   0.75345   0.16956
C          C       0.11294   0.55415   0.74796   0.16980
C          C       0.52243   0.49773   0.75838   0.07094
C          C       0.50074   0.02295   0.74470   0.06869
C          C       0.97564   0.47925   0.76916   0.06607
C          C       0.48008   0.50537   0.76183   0.07068
C          C       0.49374   0.97340   0.74434   0.07520
C          C       0.02515   0.52167   0.76791   0.07545
N          N       0.60353   0.15659   0.27788  -0.30783
N          N       0.84814   0.44951   0.23532  -0.29713
N          N       0.54800   0.39573   0.23767  -0.30907
N          N       0.39883   0.85100   0.25847  -0.30169
N          N       0.15135   0.54854   0.23546  -0.29912
N          N       0.45085   0.60248   0.24709  -0.30493
N          N       0.16500   0.64860   0.26477  -0.29839
N          N       0.35460   0.52115   0.25851  -0.30411
N          N       0.48108   0.83354   0.22568  -0.30306
N          N       0.83681   0.35782   0.26321  -0.29647
N          N       0.64413   0.47973   0.24159  -0.30370
N          N       0.51827   0.16121   0.22851  -0.30689
N          N       0.60066   0.15452   0.77881  -0.30448
N          N       0.84774   0.44674   0.74038  -0.29942
N          N       0.54901   0.39475   0.72960  -0.30323
N          N       0.39640   0.84946   0.76355  -0.30571
N          N       0.15051   0.54404   0.72713  -0.30172
N          N       0.45184   0.60254   0.75090  -0.30646
N          N       0.16463   0.64711   0.78014  -0.29958
N          N       0.35580   0.52020   0.75910  -0.30444
N          N       0.47868   0.83162   0.72219  -0.30093
N          N       0.83559   0.35398   0.76172  -0.29757
N          N       0.64597   0.48071   0.75002  -0.30528
N          N       0.51598   0.15825   0.71679  -0.30573

