data_crystal

_audit_creation_method 'AiiDA-DDEC plugin'

_cell_length_a        25.05581
_cell_length_b        25.06077
_cell_length_c         7.83488

_cell_angle_alpha     105.44015
_cell_angle_beta     104.94401
_cell_angle_gamma     119.86232

_symmetry_space_group_name_Hall 'P 1'
_symmetry_space_group_name_H-M  'P 1'

loop_
_symmetry_equiv_pos_as_xyz
 'x,y,z'

loop_
_atom_site_label
_atom_site_type_symbol
_atom_site_fract_x
_atom_site_fract_y
_atom_site_fract_z
_atom_site_charge
H          H       0.70150   0.48563   0.24027   0.13292
H          H       0.50840   0.21601   0.26292   0.13427
H          H       0.78025   0.28993   0.24732   0.13473
H          H       0.29166   0.50903   0.26055   0.13300
H          H       0.48547   0.78005   0.24478   0.13527
H          H       0.21080   0.70282   0.24166   0.13607
H          H       0.51029   0.29483   0.27490   0.13246
H          H       0.77995   0.48738   0.25153   0.13572
H          H       0.70321   0.21301   0.25105   0.13535
H          H       0.48361   0.70113   0.23173   0.13309
H          H       0.21152   0.50599   0.24267   0.13417
H          H       0.28916   0.78121   0.24964   0.13565
H          H       0.99444   0.39608   0.23519   0.16503
H          H       0.59282   0.59330   0.23292   0.16160
H          H       0.39829  -0.00121   0.25589   0.16566
H          H       0.99498   0.59525   0.24436   0.16457
H          H       0.40234   0.40353   0.27804   0.16230
H          H       0.59543   0.99708   0.25367   0.16494
H          H       0.70928   0.49167   0.74464   0.13347
H          H       0.51578   0.22109   0.76303   0.13504
H          H       0.78713   0.29488   0.74622   0.13537
H          H       0.29865   0.51447   0.76304   0.13328
H          H       0.49227   0.78432   0.74069   0.13514
H          H       0.21850   0.70857   0.74321   0.13544
H          H       0.51726   0.29953   0.77305   0.13363
H          H       0.78744   0.49267   0.75082   0.13548
H          H       0.71179   0.21948   0.75743   0.13569
H          H       0.49080   0.70591   0.73277   0.13381
H          H       0.21915   0.51192   0.74670   0.13452
H          H       0.29635   0.78630   0.74562   0.13589
H          H       0.00209   0.40153   0.73590   0.16516
H          H       0.59980   0.59870   0.73677   0.16229
H          H       0.40597   0.00383   0.75601   0.16643
H          H       0.00265   0.60108   0.74970   0.16454
H          H       0.40878   0.40779   0.77693   0.16212
H          H       0.60359   0.00289   0.75482   0.16386
C          C       0.99511   0.55198   0.24444  -0.27185
C          C       0.44364   0.44460   0.26607  -0.27734
C          C       0.55247   0.99764   0.25480  -0.27032
C          C       0.99440   0.43954   0.23695  -0.27292
C          C       0.55154   0.55227   0.24530  -0.27534
C          C       0.44115   0.99813   0.25419  -0.27314
C          C       0.49733   0.05391   0.25746   0.13573
C          C       0.93919   0.43986   0.23905   0.13712
C          C       0.55278   0.49800   0.25354   0.13959
C          C       0.49634   0.94198   0.25191   0.13452
C          C       0.05028   0.55158   0.24191   0.14092
C          C       0.44266   0.49911   0.25912   0.13579
C          C       0.93974   0.49626   0.24381   0.13574
C          C       0.55292   0.05363   0.25738   0.13564
C          C       0.49883   0.44416   0.26366   0.13780
C          C       0.04995   0.49540   0.23850   0.13547
C          C       0.44059   0.94208   0.25105   0.14045
C          C       0.49667   0.55303   0.24941   0.14168
C          C       0.60707   0.16147   0.25589   0.14531
C          C       0.83272   0.44317   0.25015   0.14922
C          C       0.55286   0.38998   0.26463   0.14318
C          C       0.38585   0.83351   0.24839   0.14415
C          C       0.15799   0.54939   0.23835   0.14408
C          C       0.44209   0.60673   0.24625   0.14206
C          C       0.83225   0.38655   0.24605   0.14183
C          C       0.55134   0.16191   0.25719   0.14177
C          C       0.60736   0.44441   0.25610   0.14157
C          C       0.15816   0.60571   0.24045   0.14604
C          C       0.44192   0.83346   0.24894   0.14985
C          C       0.38743   0.55208   0.25374   0.14161
C          C       0.66167   0.21602   0.25363  -0.23230
C          C       0.77788   0.44317   0.25232  -0.22732
C          C       0.55310   0.33510   0.26539  -0.23149
C          C       0.33075   0.77830   0.24716  -0.23012
C          C       0.21367   0.55020   0.24155  -0.22281
C          C       0.44079   0.66069   0.24081  -0.23050
C          C       0.77782   0.33210   0.24907  -0.22806
C          C       0.55205   0.21742   0.25917  -0.22113
C          C       0.66135   0.44313   0.25100  -0.23073
C          C       0.21341   0.66089   0.24212  -0.23548
C          C       0.44121   0.77784   0.24576  -0.22483
C          C       0.33223   0.55202   0.25243  -0.23140
C          C       0.66355   0.27337   0.25455   0.03732
C          C       0.72103   0.38764   0.25239   0.03435
C          C       0.60761   0.33231   0.25934   0.03264
C          C       0.32887   0.72083   0.24489   0.03084
C          C       0.27115   0.60620   0.24473   0.03035
C          C       0.38551   0.66259   0.24312   0.03551
C          C       0.72121   0.33098   0.25278   0.03300
C          C       0.60756   0.27425   0.25879   0.02866
C          C       0.66344   0.38807   0.25448   0.03438
C          C       0.27075   0.66266   0.24339   0.03934
C          C       0.38531   0.72046   0.24299   0.03238
C          C       0.32945   0.60649   0.24631   0.03246
C          C       0.00284   0.55765   0.74735  -0.26979
C          C       0.45024   0.44915   0.76605  -0.27690
C          C       0.56054   0.00329   0.75569  -0.26834
C          C       0.00199   0.44499   0.73808  -0.27332
C          C       0.55841   0.55733   0.74774  -0.27532
C          C       0.44889   0.00339   0.75382  -0.27345
C          C       0.50515   0.05933   0.75801   0.13567
C          C       0.94651   0.44500   0.73914   0.13629
C          C       0.55956   0.50293   0.75486   0.13603
C          C       0.50407   0.94710   0.75040   0.13583
C          C       0.05820   0.55754   0.74583   0.13542
C          C       0.44910   0.50360   0.75947   0.13936
C          C       0.94717   0.50151   0.74451   0.13542
C          C       0.56110   0.05948   0.75989   0.13606
C          C       0.50539   0.44871   0.76329   0.14121
C          C       0.05788   0.50135   0.74231   0.13856
C          C       0.44829   0.94717   0.74943   0.13938
C          C       0.50320   0.55767   0.75036   0.13597
C          C       0.61531   0.16753   0.75974   0.14451
C          C       0.84000   0.44828   0.74953   0.14466
C          C       0.55962   0.39473   0.76350   0.14029
C          C       0.39333   0.83860   0.74623   0.14291
C          C       0.16595   0.55557   0.74251   0.15054
C          C       0.44866   0.61136   0.74632   0.14396
C          C       0.83943   0.39159   0.74509   0.14225
C          C       0.55913   0.16746   0.75853   0.14589
C          C       0.61440   0.44948   0.75665   0.14592
C          C       0.16598   0.61173   0.74374   0.14221
C          C       0.44937   0.83844   0.74686   0.14797
C          C       0.39403   0.55680   0.75416   0.14217
C          C       0.66983   0.22208   0.75737  -0.23077
C          C       0.78523   0.44838   0.75171  -0.22352
C          C       0.56015   0.34004   0.76440  -0.23125
C          C       0.33820   0.78357   0.74535  -0.23269
C          C       0.22130   0.55602   0.74420  -0.22572
C          C       0.44779   0.66557   0.74159  -0.23505
C          C       0.78494   0.33716   0.74791  -0.23140
C          C       0.55957   0.22277   0.75955  -0.22291
C          C       0.66876   0.44866   0.75302  -0.23507
C          C       0.22091   0.66654   0.74333  -0.22884
C          C       0.44843   0.78269   0.74378  -0.22387
C          C       0.33920   0.55726   0.75417  -0.23206
C          C       0.67115   0.27892   0.75554   0.03541
C          C       0.72833   0.39293   0.75204   0.03169
C          C       0.61483   0.33749   0.75895   0.03476
C          C       0.33622   0.72615   0.74428   0.03438
C          C       0.27850   0.61178   0.74602   0.03284
C          C       0.39268   0.66777   0.74391   0.03391
C          C       0.72854   0.33630   0.75241   0.03487
C          C       0.61495   0.27957   0.75885   0.03196
C          C       0.67083   0.39345   0.75506   0.03447
C          C       0.27813   0.66821   0.74385   0.03432
C          C       0.39260   0.72561   0.74258   0.03111
C          C       0.33662   0.61183   0.74764   0.03464
O          O       0.60980   0.10784   0.25953  -0.16590
O          O       0.88669   0.49969   0.25057  -0.16392
O          O       0.49822   0.38957   0.27543  -0.16562
O          O       0.38334   0.88742   0.24667  -0.16939
O          O       0.10307   0.49203   0.23269  -0.16677
O          O       0.49796   0.60840   0.24192  -0.16574
O          O       0.88443   0.38244   0.23384  -0.16740
O          O       0.49479   0.10786   0.25668  -0.16535
O          O       0.60876   0.49989   0.24968  -0.16497
O          O       0.10425   0.60824   0.24245  -0.16859
O          O       0.49903   0.88817   0.25359  -0.16557
O          O       0.38716   0.49770   0.26591  -0.16359
O          O       0.61885   0.11468   0.76764  -0.16893
O          O       0.89417   0.50497   0.75090  -0.16687
O          O       0.50458   0.39379   0.77281  -0.16479
O          O       0.39071   0.89234   0.74316  -0.16605
O          O       0.11184   0.49887   0.74099  -0.16727
O          O       0.50419   0.61264   0.74070  -0.16395
O          O       0.89184   0.38763   0.73420  -0.16531
O          O       0.50260   0.11333   0.75761  -0.16364
O          O       0.61550   0.50485   0.75035  -0.16485
O          O       0.11275   0.61484   0.75012  -0.16540
O          O       0.50651   0.89303   0.75065  -0.17035
O          O       0.39345   0.50211   0.76527  -0.16558

