data_crystal

_audit_creation_method 'AiiDA-DDEC plugin'

_cell_length_a        37.53535
_cell_length_b        37.46621
_cell_length_c         7.85615

_cell_angle_alpha     69.73085
_cell_angle_beta     109.68858
_cell_angle_gamma     120.72873

_symmetry_space_group_name_Hall 'P 1'
_symmetry_space_group_name_H-M  'P 1'

loop_
_symmetry_equiv_pos_as_xyz
 'x,y,z'

loop_
_atom_site_label
_atom_site_type_symbol
_atom_site_fract_x
_atom_site_fract_y
_atom_site_fract_z
_atom_site_charge
H          H       0.30370   0.13425   0.24001   0.25903
H          H       0.87041   0.16868   0.27290   0.25249
H          H       0.82815   0.70767   0.14426   0.25562
H          H       0.38041   0.17575   0.32711   0.25202
H          H       0.82719   0.20453   0.21216   0.25542
H          H       0.79975   0.63122   0.17830   0.25218
H          H       0.15267   0.12919   0.10326   0.11561
H          H       0.87445   0.03622   0.16998   0.11731
H          H       0.97079   0.84974   0.20588   0.11369
H          H       0.17471   0.02059   0.42288   0.12132
H          H       0.98037   0.13639   0.42526   0.12185
H          H       0.85663   0.83296   0.30569   0.12238
H          H       0.25238   0.06541   0.43198   0.10580
H          H       0.93241   0.16578   0.40734   0.10826
H          H       0.82225   0.75670   0.28381   0.10190
H          H       0.50064   0.33338   0.12684   0.12907
H          H       0.67164   0.18393   0.12057   0.12812
H          H       0.82879   0.49927   0.24023   0.13288
H          H       0.52387   0.22687   0.47655   0.10453
H          H       0.77976   0.28122   0.38381   0.11131
H          H       0.71525   0.48777   0.32031   0.11117
H          H       0.44805   0.18491   0.49336   0.10508
H          H       0.82498   0.25048   0.38696   0.10051
H          H       0.74762   0.56513   0.29211   0.10616
H          H       0.03163   0.07886   0.28551   0.11140
H          H       0.92760   0.95316   0.29108   0.11503
H          H       0.05151   0.97573   0.28101   0.11140
H          H       0.10260   0.09199   0.28305   0.06802
H          H       0.91521   0.00789   0.30443   0.07052
H          H       0.99559   0.90462   0.30279   0.06635
H          H       0.62982   0.37115   0.25627   0.11181
H          H       0.62866   0.25656   0.24722   0.11433
H          H       0.74458   0.37336   0.24067   0.11692
H          H       0.56327   0.25496   0.25475   0.06200
H          H       0.74396   0.31400   0.20401   0.06497
H          H       0.69010   0.43709   0.21453   0.05885
H          H       0.22922   0.17339   0.10554   0.14246
H          H       0.82675   0.06358   0.16134   0.13323
H          H       0.93706   0.77469   0.18556   0.13851
H          H       0.42425   0.29061   0.13591   0.14220
H          H       0.71697   0.15241   0.12797   0.14005
H          H       0.86273   0.57733   0.22091   0.13877
H          H       0.29738   0.13655   0.71742   0.26031
H          H       0.86779   0.16599   0.79677   0.25272
H          H       0.82802   0.70531   0.63283   0.25523
H          H       0.37474   0.17219   0.83892   0.25267
H          H       0.82171   0.20249   0.69428   0.25497
H          H       0.79579   0.62682   0.69132   0.25209
H          H       0.14769   0.12970   0.60390   0.11356
H          H       0.86693   0.03304   0.67003   0.12009
H          H       0.97004   0.84653   0.71208   0.11443
H          H       0.16977   0.02070   0.91685   0.12138
H          H       0.97645   0.13401   0.90744   0.12241
H          H       0.85441   0.82889   0.80045   0.12190
H          H       0.24725   0.06539   0.92860   0.10679
H          H       0.93078   0.16476   0.90216   0.10958
H          H       0.82093   0.75308   0.77849   0.10052
H          H       0.49807   0.32944   0.64266   0.12909
H          H       0.66771   0.18191   0.61409   0.12724
H          H       0.82105   0.49707   0.69915   0.12950
H          H       0.51805   0.22077   0.98046   0.10507
H          H       0.77511   0.27926   0.87782   0.11114
H          H       0.71399   0.48338   0.85172   0.10694
H          H       0.44212   0.17978   0.99414   0.10374
H          H       0.82097   0.24928   0.88129   0.10109
H          H       0.74709   0.56033   0.82930   0.10493
H          H       0.02491   0.07492   0.79103   0.11026
H          H       0.92255   0.94839   0.79179   0.11564
H          H       0.04763   0.97426   0.78160   0.11035
H          H       0.09665   0.09013   0.78925   0.07003
H          H       0.90948   0.00293   0.81636   0.07350
H          H       0.99332   0.90370   0.79660   0.06566
H          H       0.62442   0.36651   0.76529   0.11184
H          H       0.62420   0.25355   0.73818   0.11340
H          H       0.73855   0.37175   0.72187   0.11649
H          H       0.55926   0.24998   0.76274   0.06124
H          H       0.73898   0.31217   0.68917   0.06437
H          H       0.68509   0.43244   0.74027   0.06142
H          H       0.22482   0.17381   0.60730   0.14199
H          H       0.82149   0.06234   0.67088   0.13300
H          H       0.93726   0.77152   0.69089   0.14133
H          H       0.42115   0.28785   0.64628   0.14225
H          H       0.71347   0.15020   0.62640   0.13882
H          H       0.85548   0.57481   0.68209   0.13527
C          C       0.31282   0.18819   0.29333   0.02924
C          C       0.81204   0.12092   0.28457   0.02781
C          C       0.87586   0.69108   0.30012   0.03650
C          C       0.35621   0.21540   0.30262   0.02516
C          C       0.78977   0.14126   0.28830   0.03444
C          C       0.86097   0.64826   0.30226   0.02596
C          C       0.35233   0.25098   0.32939   0.22344
C          C       0.75385   0.10024   0.35195   0.22279
C          C       0.90019   0.64639   0.43337   0.22629
C          C       0.30470   0.22033   0.32562   0.21856
C          C       0.77720   0.07756   0.33650   0.22633
C          C       0.91536   0.69310   0.43686   0.21914
C          C       0.24559   0.12236   0.27290   0.19635
C          C       0.87685   0.11755   0.27786   0.19895
C          C       0.87789   0.76110   0.23681   0.20196
C          C       0.21751   0.14035   0.17968  -0.14135
C          C       0.86028   0.07996   0.21797  -0.15937
C          C       0.91998   0.78732   0.21638  -0.14023
C          C       0.17448   0.11531   0.17913  -0.15645
C          C       0.88735   0.06382   0.22853  -0.14304
C          C       0.93863   0.82956   0.22860  -0.14667
C          C       0.15870   0.07205   0.26929   0.19960
C          C       0.93106   0.08402   0.30142   0.18377
C          C       0.91606   0.84663   0.26004   0.19305
C          C       0.18722   0.05415   0.35598  -0.14198
C          C       0.94694   0.12127   0.36417  -0.13163
C          C       0.87366   0.81983   0.27807  -0.13117
C          C       0.23033   0.07917   0.36035  -0.20038
C          C       0.92022   0.13779   0.35250  -0.20750
C          C       0.85482   0.77746   0.26654  -0.20689
C          C       0.43119   0.23448   0.30989   0.20402
C          C       0.77364   0.19950   0.25876   0.19647
C          C       0.80658   0.57637   0.24799   0.19971
C          C       0.44610   0.27688   0.21187  -0.15259
C          C       0.73031   0.18041   0.18439  -0.14383
C          C       0.83025   0.55793   0.24025  -0.15418
C          C       0.48895   0.30074   0.20638  -0.12699
C          C       0.70521   0.19824   0.18003  -0.12596
C          C       0.81152   0.51414   0.25276  -0.11864
C          C       0.51732   0.28262   0.29273   0.19334
C          C       0.72263   0.23553   0.24522   0.19174
C          C       0.76929   0.48819   0.27405   0.18343
C          C       0.50208   0.24061   0.39839  -0.16763
C          C       0.76628   0.25415   0.32084  -0.16836
C          C       0.74685   0.50722   0.29078  -0.15760
C          C       0.45957   0.21698   0.40782  -0.19982
C          C       0.79140   0.23633   0.32630  -0.20210
C          C       0.76495   0.55071   0.27612  -0.19899
C          C       0.04648   0.03036   0.28121   0.06018
C          C       0.97666   0.01784   0.29077   0.06456
C          C       0.98743   0.95934   0.28565   0.05629
C          C       0.01974   0.04557   0.28535  -0.13661
C          C       0.96075   0.97515   0.28809  -0.14360
C          C       0.03009   0.98700   0.28301  -0.14012
C          C       0.09125   0.05879   0.27800   0.07853
C          C       0.94802   0.03233   0.29996   0.07673
C          C       0.97148   0.91462   0.28660   0.07795
C          C       0.64692   0.35523   0.25263  -0.13887
C          C       0.64537   0.29032   0.24769  -0.13699
C          C       0.71099   0.35575   0.24447  -0.15013
C          C       0.62434   0.31151   0.25407   0.06104
C          C       0.68868   0.31251   0.24033   0.06347
C          C       0.69006   0.37742   0.24927   0.06062
C          C       0.57945   0.28871   0.26153   0.07564
C          C       0.71162   0.29206   0.22787   0.07786
C          C       0.71150   0.42275   0.24622   0.07293
C          C       0.30867   0.18775   0.79813   0.03646
C          C       0.80860   0.11931   0.78725   0.02762
C          C       0.87448   0.68755   0.79403   0.03527
C          C       0.35231   0.21369   0.80766   0.02636
C          C       0.78616   0.13974   0.78797   0.03829
C          C       0.85825   0.64459   0.79536   0.02345
C          C       0.35035   0.24995   0.83713   0.22045
C          C       0.75070   0.09890   0.85619   0.22185
C          C       0.89735   0.64173   0.92129   0.22512
C          C       0.30272   0.22043   0.83822   0.21700
C          C       0.77375   0.07609   0.83909   0.22926
C          C       0.91431   0.68883   0.92717   0.22374
C          C       0.24057   0.12264   0.77193   0.19609
C          C       0.87335   0.11626   0.77982   0.19899
C          C       0.87717   0.75773   0.73500   0.19764
C          C       0.21254   0.14064   0.67971  -0.13875
C          C       0.85539   0.07840   0.72037  -0.16011
C          C       0.91953   0.78401   0.71831  -0.13972
C          C       0.16942   0.11567   0.67813  -0.16018
C          C       0.88119   0.06127   0.72592  -0.14507
C          C       0.93761   0.82623   0.73096  -0.14641
C          C       0.15367   0.07226   0.76643   0.20093
C          C       0.92522   0.08109   0.79294   0.18304
C          C       0.91438   0.84309   0.75905   0.19251
C          C       0.18224   0.05440   0.85240  -0.14058
C          C       0.94262   0.11903   0.85307  -0.13433
C          C       0.87197   0.81597   0.77547  -0.13276
C          C       0.22538   0.07941   0.85830  -0.19142
C          C       0.91712   0.13636   0.84771  -0.20817
C          C       0.85365   0.77374   0.76363  -0.20608
C          C       0.42645   0.23051   0.81497   0.20294
C          C       0.76980   0.19780   0.75472   0.19907
C          C       0.80256   0.57272   0.74692   0.19858
C          C       0.44225   0.27320   0.72033  -0.15171
C          C       0.72649   0.17836   0.68107  -0.14418
C          C       0.82433   0.55494   0.71731  -0.15270
C          C       0.48522   0.29644   0.71757  -0.12540
C          C       0.70122   0.19616   0.67421  -0.12719
C          C       0.80521   0.51126   0.72821  -0.12100
C          C       0.51284   0.27750   0.80239   0.19223
C          C       0.71848   0.23362   0.73764   0.19294
C          C       0.76441   0.48485   0.76787   0.18566
C          C       0.49683   0.23525   0.90453  -0.16802
C          C       0.76202   0.25237   0.81433  -0.16980
C          C       0.74406   0.50317   0.80676  -0.15949
C          C       0.45417   0.21217   0.91195  -0.19989
C          C       0.78740   0.23472   0.82108  -0.19625
C          C       0.76269   0.54659   0.79515  -0.19808
C          C       0.04116   0.02789   0.78327   0.05876
C          C       0.97061   0.01362   0.79316   0.06375
C          C       0.98308   0.95639   0.78629   0.05664
C          C       0.01361   0.04193   0.78871  -0.13307
C          C       0.95556   0.97110   0.78991  -0.14378
C          C       0.02564   0.98476   0.78410  -0.14091
C          C       0.08579   0.05734   0.77968   0.07793
C          C       0.94165   0.02788   0.80146   0.07405
C          C       0.96830   0.91208   0.78423   0.07680
C          C       0.64156   0.35128   0.75500  -0.13540
C          C       0.64051   0.28725   0.74002  -0.14314
C          C       0.70529   0.35339   0.73141  -0.14777
C          C       0.61943   0.30761   0.75371   0.06261
C          C       0.68353   0.31018   0.72752   0.06341
C          C       0.68442   0.37417   0.74574   0.05689
C          C       0.57494   0.28382   0.76781   0.07359
C          C       0.70679   0.29010   0.71459   0.08089
C          C       0.70608   0.41913   0.75011   0.07036
N          N       0.29005   0.14694   0.27904  -0.28697
N          N       0.85228   0.13793   0.26051  -0.27206
N          N       0.85782   0.71793   0.22278  -0.27956
N          N       0.38767   0.20683   0.30875  -0.26532
N          N       0.80077   0.18292   0.26473  -0.28542
N          N       0.82237   0.62078   0.22604  -0.27253
N          N       0.11600   0.04480   0.27418  -0.28555
N          N       0.96046   0.07114   0.30488  -0.28980
N          N       0.93159   0.88898   0.26895  -0.28961
N          N       0.55954   0.30718   0.27354  -0.27787
N          N       0.69585   0.25163   0.24234  -0.28229
N          N       0.75211   0.44474   0.27676  -0.28350
N          N       0.28495   0.14724   0.77474  -0.28903
N          N       0.84935   0.13648   0.76948  -0.27258
N          N       0.85694   0.71478   0.71805  -0.27812
N          N       0.38271   0.20374   0.81200  -0.27036
N          N       0.79699   0.18145   0.75910  -0.28989
N          N       0.81869   0.61718   0.72532  -0.27792
N          N       0.11100   0.04457   0.77043  -0.28193
N          N       0.95368   0.06729   0.79455  -0.28753
N          N       0.92878   0.88523   0.76806  -0.29080
N          N       0.55500   0.30191   0.78268  -0.27735
N          N       0.69147   0.24960   0.73273  -0.28695
N          N       0.74648   0.44171   0.76383  -0.28180
O          O       0.27498   0.22034   0.35744  -0.36771
O          O       0.77199   0.04133   0.36614  -0.34313
O          O       0.94361   0.71870   0.52836  -0.36324
O          O       0.37649   0.28673   0.35561  -0.35048
O          O       0.72317   0.09028   0.41117  -0.35856
O          O       0.91249   0.61926   0.51351  -0.34288
O          O       0.27425   0.22165   0.87465  -0.36603
O          O       0.76803   0.03988   0.86442  -0.34451
O          O       0.94354   0.71406   0.01763  -0.36118
O          O       0.37547   0.28597   0.85790  -0.35211
O          O       0.72062   0.08915   0.91927  -0.35950
O          O       0.90843   0.61361  -0.00295  -0.34474

