data_crystal

_audit_creation_method 'AiiDA-DDEC plugin'

_cell_length_a        29.91434
_cell_length_b        30.57947
_cell_length_c         9.81195

_cell_angle_alpha     138.40760
_cell_angle_beta     61.01622
_cell_angle_gamma     119.60368

_symmetry_space_group_name_Hall 'P 1'
_symmetry_space_group_name_H-M  'P 1'

loop_
_symmetry_equiv_pos_as_xyz
 'x,y,z'

loop_
_atom_site_label
_atom_site_type_symbol
_atom_site_fract_x
_atom_site_fract_y
_atom_site_fract_z
_atom_site_charge
H          H       0.38835   0.50165   0.19977   0.07044
H          H       0.49195   0.86186   0.13824   0.09321
H          H       0.12275   0.57879   0.12930   0.08417
H          H       0.59318   0.48837   0.30274   0.06552
H          H       0.50123   0.12995   0.30031   0.10108
H          H       0.87185   0.43724   0.41087   0.09964
H          H       0.37154   0.56528   0.20386   0.24332
H          H       0.43107   0.78333   0.14520   0.25280
H          H       0.20466   0.59714   0.13067   0.26769
H          H       0.61438   0.42992   0.29854   0.24067
H          H       0.56410   0.21533   0.33301   0.26486
H          H       0.79159   0.40445   0.37723   0.26660
H          H       0.30906   0.59603   0.31242   0.09895
H          H       0.42481   0.74439   0.27387   0.12328
H          H       0.26284   0.70467   0.29668   0.12432
H          H       0.68111   0.41158   0.22540   0.10520
H          H       0.57186   0.25503   0.23018   0.11468
H          H       0.73363   0.30766   0.24079   0.12435
H          H       0.39970   0.43132   0.19349   0.11538
H          H       0.55796   0.96006   0.20802   0.14250
H          H       0.03661   0.58890   0.21764   0.12567
H          H       0.57988   0.55903   0.32298   0.11505
H          H       0.43375   0.03978   0.27277   0.12982
H          H       0.95618   0.43031   0.32944   0.13098
H          H       0.56615   0.63378   0.36497   0.36317
H          H       0.37629   0.93768   0.17591   0.37178
H          H       0.03825   0.43768   0.30225   0.37006
H          H       0.41384   0.35673   0.15659   0.36504
H          H       0.60856   0.09806   0.23622   0.30900
H          H       0.95471   0.57767   0.23024   0.37132
H          H       0.41215   0.50762   0.68281   0.06727
H          H       0.48721   0.87081   0.71292   0.08251
H          H       0.12964   0.58163   0.64081   0.11035
H          H       0.61614   0.49751   0.79890   0.07000
H          H       0.51159   0.11279   0.73697   0.08026
H          H       0.88012   0.43294   0.91424   0.09345
H          H       0.39175   0.56387   0.67391   0.24115
H          H       0.43002   0.78660   0.68285   0.25242
H          H       0.21148   0.59241   0.61814   0.27471
H          H       0.63372   0.43477   0.79370   0.24280
H          H       0.57099   0.19451   0.75065   0.24932
H          H       0.79910   0.40171   0.87427   0.27091
H          H       0.32021   0.58549   0.78441   0.10760
H          H       0.42687   0.74559   0.78853   0.11894
H          H       0.26490   0.68768   0.76840   0.12390
H          H       0.69534   0.40656   0.70031   0.09887
H          H       0.57840   0.26374   0.76105   0.11645
H          H       0.74106   0.29661   0.71202   0.12495
H          H       0.42389   0.44080   0.68223   0.11752
H          H       0.55153   0.96092   0.76713   0.12323
H          H       0.04120   0.58119   0.70773   0.13177
H          H       0.60420   0.56875   0.80998   0.11581
H          H       0.44483   0.03011   0.72176   0.12757
H          H       0.97058   0.41886   0.80265   0.14736
H          H       0.59079   0.64151   0.83650   0.36419
H          H       0.38115   0.93692   0.66155   0.37018
H          H       0.10810   0.48566   0.73984   0.30996
H          H       0.44017   0.36436   0.62819   0.36804
H          H       0.61649   0.04830   0.80830   0.36900
H          H       0.95724   0.56704   0.72782   0.36377
C          C       0.42722   0.53610   0.23513  -0.01267
C          C       0.46120   0.88673   0.20774  -0.00029
C          C       0.10827   0.56155   0.21253   0.03193
C          C       0.55458   0.45302   0.26844  -0.00541
C          C       0.53109   0.11294   0.27673   0.01374
C          C       0.88504   0.45577   0.33221   0.02206
C          C       0.32089   0.63060   0.29043  -0.13784
C          C       0.38442   0.71575   0.27421  -0.09215
C          C       0.29292   0.69165   0.28671  -0.09424
C          C       0.67080   0.37553   0.23978  -0.13513
C          C       0.61132   0.28659   0.24095  -0.09306
C          C       0.70255   0.31761   0.24473  -0.09651
C          C       0.37282   0.66586   0.27722  -0.04591
C          C       0.34467   0.72904   0.28026  -0.01515
C          C       0.28082   0.64297   0.29395  -0.02505
C          C       0.62014   0.33593   0.24036  -0.04065
C          C       0.65197   0.27719   0.24370  -0.01466
C          C       0.71217   0.36653   0.24160  -0.02971
C          C       0.41636   0.65877   0.29012   0.43301
C          C       0.35217   0.78576   0.29968   0.44658
C          C       0.22596   0.60856   0.33141   0.45432
C          C       0.57435   0.33712   0.21959   0.43603
C          C       0.64522   0.22334   0.23538   0.44495
C          C       0.76582   0.40570   0.21569   0.44590
C          C       0.46040   0.51744   0.24738   0.00220
C          C       0.47696   0.94374   0.22527  -0.00981
C          C       0.05207   0.53373   0.24306  -0.00129
C          C       0.52002   0.47168   0.26208   0.00870
C          C       0.51408   0.05632   0.26011  -0.05401
C          C       0.94090   0.48559   0.30459  -0.00069
C          C       0.43968   0.45929   0.22113  -0.28471
C          C       0.53042   0.97684   0.22053  -0.25428
C          C       0.01888   0.55384   0.24224  -0.27463
C          C       0.54015   0.53061   0.29342  -0.26845
C          C       0.46069   0.02244   0.26112  -0.26715
C          C       0.97418   0.46555   0.30549  -0.28257
C          C       0.51204   0.55405   0.28729   0.26472
C          C       0.44161   0.96670   0.24205   0.24365
C          C       0.02850   0.48738   0.27219   0.24944
C          C       0.46786   0.43601   0.22811   0.26409
C          C       0.54979   0.03198   0.23565   0.26061
C          C       0.96455   0.53114   0.27215   0.24635
C          C       0.44894   0.54592   0.73463   0.00622
C          C       0.45618   0.88752   0.74113   0.01102
C          C       0.11595   0.55410   0.69087   0.04186
C          C       0.57633   0.46505   0.77419  -0.01070
C          C       0.54076   0.10327   0.74551   0.00208
C          C       0.89470   0.44373   0.81317   0.02678
C          C       0.32944   0.62133   0.77021  -0.13706
C          C       0.38769   0.71281   0.77658  -0.09502
C          C       0.29634   0.67827   0.76515  -0.10585
C          C       0.68343   0.37127   0.71950  -0.13437
C          C       0.61950   0.28904   0.74823  -0.10628
C          C       0.71106   0.30946   0.72129  -0.08872
C          C       0.37950   0.66274   0.77419  -0.04485
C          C       0.34614   0.72087   0.77293  -0.01176
C          C       0.28782   0.62868   0.76375  -0.03213
C          C       0.63120   0.33781   0.74046  -0.04548
C          C       0.65910   0.27394   0.73630  -0.01840
C          C       0.72339   0.35784   0.71254  -0.02325
C          C       0.42460   0.66285   0.80186   0.43852
C          C       0.34906   0.77561   0.79058   0.43568
C          C       0.23422   0.58808   0.78046   0.44133
C          C       0.58648   0.34656   0.73894   0.43059
C          C       0.65131   0.22234   0.74099   0.43188
C          C       0.77850   0.39208   0.67587   0.45187
C          C       0.48345   0.52855   0.74545   0.00497
C          C       0.47482   0.94211   0.74513  -0.00747
C          C       0.06057   0.52509   0.72008  -0.05573
C          C       0.54304   0.48364   0.76229   0.00720
C          C       0.52131   0.04993   0.74790  -0.00489
C          C       0.95087   0.47292   0.78228  -0.00677
C          C       0.46337   0.46966   0.71416  -0.26665
C          C       0.52806   0.97633   0.75707  -0.28398
C          C       0.02539   0.54513   0.72708  -0.27644
C          C       0.56394   0.54137   0.78611  -0.28257
C          C       0.46825   0.01532   0.73412  -0.27951
C          C       0.98578   0.45385   0.77942  -0.24943
C          C       0.53560   0.56436   0.77877   0.26785
C          C       0.44444   0.96294   0.73402   0.25458
C          C       0.04004   0.47881   0.74834   0.26308
C          C       0.49144   0.44668   0.72196   0.26576
C          C       0.55157   0.02939   0.76089   0.25241
C          C       0.97149   0.52048   0.75891   0.22957
N          N       0.40639   0.59987   0.24488  -0.24055
N          N       0.40355   0.81248   0.24680  -0.25697
N          N       0.19114   0.59530   0.24605  -0.23079
N          N       0.58085   0.39266   0.25416  -0.24199
N          N       0.59341   0.19407   0.27276  -0.23306
N          N       0.80221   0.41690   0.29058  -0.23029
N          N       0.44127   0.59001   0.26555  -0.07008
N          N       0.41316   0.86675   0.27440  -0.09569
N          N       0.13943   0.56773   0.28552  -0.10352
N          N       0.54281   0.39949   0.23717  -0.07148
N          N       0.58074   0.14202   0.25913  -0.12831
N          N       0.85299   0.44878   0.26025  -0.10498
N          N       0.42122   0.60536   0.74973  -0.23700
N          N       0.39926   0.80816   0.75519  -0.24626
N          N       0.19994   0.57804   0.70041  -0.22609
N          N       0.59724   0.40313   0.77106  -0.24300
N          N       0.60051   0.18469   0.74351  -0.23125
N          N       0.81301   0.40369   0.75908  -0.22708
N          N       0.45882   0.60126   0.77822  -0.07814
N          N       0.40707   0.85982   0.77222  -0.10059
N          N       0.14829   0.54731   0.72559  -0.14115
N          N       0.56140   0.41332   0.75554  -0.06637
N          N       0.58912   0.13752   0.75014  -0.06857
N          N       0.86479   0.43130   0.72161  -0.10125
O          O       0.45742   0.70253   0.34304  -0.45447
O          O       0.31464   0.80722   0.36630  -0.43910
O          O       0.21344   0.59436   0.43791  -0.50009
O          O       0.53436   0.29122   0.17034  -0.45979
O          O       0.68235   0.20654   0.19634  -0.44653
O          O       0.77554   0.42603   0.12957  -0.49933
O          O       0.53314   0.61122   0.31631  -0.41636
O          O       0.39001   0.93272   0.23516  -0.43848
O          O       0.06016   0.46401   0.26127  -0.43743
O          O       0.44624   0.38031   0.20731  -0.42465
O          O       0.60200   0.06043   0.22732  -0.41996
O          O       0.93286   0.55238   0.27488  -0.44224
O          O       0.46156   0.71282   0.87496  -0.46547
O          O       0.30929   0.78983   0.83593  -0.43964
O          O       0.22187   0.56683   0.86692  -0.50382
O          O       0.54359   0.30588   0.70710  -0.45551
O          O       0.68773   0.21525   0.74457  -0.43742
O          O       0.79137   0.40789   0.57383  -0.49317
O          O       0.55705   0.61931   0.79597  -0.42432
O          O       0.39272   0.93124   0.72435  -0.43216
O          O       0.07159   0.45829   0.74667  -0.42325
O          O       0.47054   0.38946   0.69241  -0.42054
O          O       0.60297   0.06242   0.77617  -0.42334
O          O       0.93729   0.54263   0.77578  -0.44151

