data_crystal

_audit_creation_method 'AiiDA-DDEC plugin'

_cell_length_a        30.21628
_cell_length_b        29.97808
_cell_length_c         8.05844

_cell_angle_alpha     111.92214
_cell_angle_beta     104.12642
_cell_angle_gamma     118.82451

_symmetry_space_group_name_Hall 'P 1'
_symmetry_space_group_name_H-M  'P 1'

loop_
_symmetry_equiv_pos_as_xyz
 'x,y,z'

loop_
_atom_site_label
_atom_site_type_symbol
_atom_site_fract_x
_atom_site_fract_y
_atom_site_fract_z
_atom_site_charge
H          H       0.43854   0.55829   0.37332   0.08653
H          H       0.50617   0.90823   0.35158   0.07023
H          H       0.13791   0.61447   0.25659   0.07909
H          H       0.61751   0.48919   0.19950   0.07654
H          H       0.53226   0.11624   0.12407   0.07348
H          H       0.89679   0.39447   0.21602   0.07518
H          H       0.41729   0.61805   0.36426   0.26501
H          H       0.44286   0.82618   0.31953   0.24401
H          H       0.21534   0.63556   0.25038   0.24330
H          H       0.64347   0.43586   0.23001   0.25202
H          H       0.59877   0.20196   0.17392   0.24970
H          H       0.82160   0.38072   0.25226   0.24911
H          H       0.32895   0.58538   0.19773   0.11660
H          H       0.43251   0.74853   0.21020   0.10510
H          H       0.26537   0.68448   0.16388   0.11421
H          H       0.72077   0.44866   0.32077   0.11561
H          H       0.61404   0.29317   0.34389   0.11147
H          H       0.77271   0.34007   0.34663   0.10959
H          H       0.43879   0.47785   0.30992   0.11871
H          H       0.58158   0.99235   0.39628   0.12958
H          H       0.06188   0.60421   0.27611   0.11566
H          H       0.61438   0.56850   0.24555   0.12706
H          H       0.45775   0.03754   0.10479   0.11520
H          H       0.97582   0.40594   0.20789   0.11837
H          H       0.61356   0.71701   0.39615   0.12444
H          H       0.31723   0.90784   0.96058   0.13051
H          H       0.05991   0.41955   0.37674   0.11371
H          H       0.41732   0.34387   0.25527   0.13033
H          H       0.68900   0.17761   0.60587   0.10476
H          H       0.95643   0.62233   0.32961   0.13278
H          H       0.64417   0.69984   0.56057   0.08846
H          H       0.36218   0.93764   0.86026   0.11595
H          H       0.09309   0.40120   0.23630   0.13392
H          H       0.38981   0.36397   0.09659   0.08971
H          H       0.72451   0.14388   0.60450   0.11091
H          H       0.98379   0.60432   0.16383   0.10754
H          H       0.57499   0.68433   0.50677   0.09913
H          H       0.37407   0.99069   0.10337   0.09438
H          H       0.01536   0.36216   0.09509   0.08673
H          H       0.42290   0.41133   0.37619   0.09119
H          H       0.67336   0.12785   0.69457   0.11010
H          H       0.03220   0.65339   0.44505   0.08850
H          H       0.38039   0.50898   0.80543   0.07696
H          H       0.47026   0.87570   0.83619   0.07209
H          H       0.09818   0.59889   0.75802   0.07393
H          H       0.56576   0.44802   0.65822   0.08579
H          H       0.49304   0.08288   0.60796   0.07154
H          H       0.86005   0.38503   0.74357   0.07861
H          H       0.35412   0.56161   0.76905   0.25190
H          H       0.40444   0.79354   0.80811   0.24714
H          H       0.17392   0.61400   0.73042   0.24776
H          H       0.58161   0.38209   0.63903   0.26651
H          H       0.55663   0.16906   0.65878   0.24614
H          H       0.78407   0.36495   0.75318   0.24128
H          H       0.27663   0.54797   0.66983   0.11518
H          H       0.38631   0.70525   0.66030   0.10852
H          H       0.22904   0.66138   0.66525   0.11066
H          H       0.66914   0.41324   0.79995   0.11620
H          H       0.56600   0.25016   0.78783   0.10690
H          H       0.73487   0.31681   0.84615   0.11132
H          H       0.38384   0.43018   0.75352   0.11526
H          H       0.54551   0.95992   0.88096   0.11893
H          H       0.02051   0.58904   0.76982   0.11747
H          H       0.56919   0.53291   0.75021   0.12243
H          H       0.41828   0.99617   0.54723   0.11918
H          H       0.93395   0.39269   0.71519   0.11513
H          H       0.59332   0.67218   0.85289   0.12241
H          H       0.27851   0.84478   0.29715   0.13267
H          H       0.03356   0.36802   0.63745   0.13047
H          H       0.36299   0.29668   0.69019   0.13056
H          H       0.68118   0.07746   0.95766   0.12657
H          H       0.90575   0.59719   0.75056   0.13330
H          H       0.58908   0.60699   0.70467   0.09168
H          H       0.33674   0.88578   0.25651   0.11384
H          H       0.95920   0.34116   0.53002   0.09196
H          H       0.33977   0.32410   0.55353   0.09819
H          H       0.61990   0.99591   0.81418   0.09267
H          H       0.93752   0.57695   0.60654   0.11253
H          H       0.61224   0.64012   0.97788   0.10789
H          H       0.32240   0.92787   0.43320   0.08925
H          H       0.00806   0.38697   0.80977   0.10772
H          H       0.37068   0.36504   0.83148   0.09374
H          H       0.64329   0.04967   0.08014   0.11683
H          H       0.98314   0.63460   0.88825   0.08659
C          C       0.46678   0.57373   0.31005   0.00707
C          C       0.47185   0.91048   0.28105  -0.01547
C          C       0.12336   0.56918   0.22450  -0.01674
C          C       0.58778   0.47282   0.25688   0.02250
C          C       0.56698   0.11913   0.22466  -0.00191
C          C       0.91249   0.44011   0.24841  -0.00788
C          C       0.33691   0.62529   0.20141  -0.10694
C          C       0.39378   0.71782   0.21096  -0.13669
C          C       0.29892   0.67906   0.18066  -0.11739
C          C       0.70983   0.40803   0.31855  -0.09658
C          C       0.65127   0.32020   0.33017  -0.12829
C          C       0.74142   0.34870   0.33356  -0.09646
C          C       0.38794   0.66910   0.21648  -0.03362
C          C       0.34968   0.72323   0.19386  -0.03712
C          C       0.29234   0.63020   0.18608  -0.02219
C          C       0.66045   0.36998   0.32355  -0.02321
C          C       0.69200   0.30997   0.33738  -0.04827
C          C       0.75011   0.39707   0.32039  -0.01229
C          C       0.43595   0.66504   0.22246   0.42905
C          C       0.35123   0.77147   0.17321   0.44217
C          C       0.23948   0.57977   0.17012   0.43945
C          C       0.61909   0.38232   0.34500   0.45445
C          C       0.68948   0.26413   0.37613   0.45240
C          C       0.80217   0.44134   0.31909   0.43828
C          C       0.49920   0.55039   0.29269   0.00602
C          C       0.49337   0.96291   0.26684  -0.00445
C          C       0.07077   0.53454   0.23142   0.00061
C          C       0.55474   0.49540   0.26490  -0.01012
C          C       0.54575   0.06759   0.24448   0.00411
C          C       0.96624   0.47494   0.24810  -0.00057
C          C       0.47741   0.49709   0.29505  -0.26475
C          C       0.55382   0.00226   0.33466  -0.23770
C          C       0.04292   0.56087   0.26332  -0.27588
C          C       0.57549   0.54770   0.25869  -0.23668
C          C       0.48474   0.02782   0.17272  -0.27737
C          C       0.99463   0.44912   0.21973  -0.26943
C          C       0.54923   0.57538   0.27106   0.18916
C          C       0.45824   0.97657   0.18251   0.20910
C          C       0.04641   0.47792   0.21574   0.20015
C          C       0.50306   0.46866   0.27777   0.21128
C          C       0.58042   0.05314   0.32402   0.20699
C          C       0.99229   0.53319   0.27476   0.19953
C          C       0.60321   0.68490   0.44260  -0.19214
C          C       0.36164   0.94477   0.00361  -0.18887
C          C       0.05919   0.40617   0.22839  -0.19436
C          C       0.42428   0.38237   0.24841  -0.18526
C          C       0.68387   0.13669   0.58353  -0.18949
C          C       0.98661   0.61320   0.31259  -0.18500
C          C       0.41188   0.52686   0.75561   0.02178
C          C       0.43546   0.87526   0.75003  -0.01211
C          C       0.08338   0.55421   0.73303  -0.00382
C          C       0.53690   0.43134   0.71808   0.00193
C          C       0.52837   0.08378   0.69318  -0.01428
C          C       0.87465   0.43005   0.77275  -0.01635
C          C       0.28866   0.58960   0.67778  -0.09885
C          C       0.34890   0.67853   0.67379  -0.13034
C          C       0.25936   0.65141   0.67376  -0.10234
C          C       0.66167   0.37370   0.79776  -0.10550
C          C       0.60481   0.28108   0.78785  -0.13593
C          C       0.70070   0.32134   0.82519  -0.12032
C          C       0.33864   0.62792   0.67600  -0.02334
C          C       0.30918   0.69007   0.67100  -0.04502
C          C       0.24907   0.60143   0.67928  -0.00845
C          C       0.61046   0.32953   0.78088  -0.03185
C          C       0.64964   0.27673   0.80979  -0.04355
C          C       0.70689   0.36970   0.81705  -0.02075
C          C       0.37999   0.61552   0.65636   0.45421
C          C       0.31297   0.73693   0.63555   0.44753
C          C       0.19636   0.55608   0.67626   0.43422
C          C       0.56267   0.33382   0.77640   0.42825
C          C       0.64879   0.22970   0.83635   0.44024
C          C       0.75975   0.42046   0.83382   0.43865
C          C       0.44693   0.50671   0.75812  -0.00647
C          C       0.45657   0.92614   0.72678  -0.00216
C          C       0.02972   0.52002   0.73452  -0.00117
C          C       0.50612   0.45622   0.74465   0.00967
C          C       0.50749   0.03077   0.70442  -0.00455
C          C       0.92622   0.46301   0.75882   0.00118
C          C       0.42507   0.45278   0.75551  -0.27222
C          C       0.51776   0.96775   0.80502  -0.27077
C          C       0.00179   0.54644   0.76182  -0.26377
C          C       0.52881   0.51118   0.75378  -0.25511
C          C       0.44617   0.98819   0.62138  -0.26443
C          C       0.95314   0.43566   0.72540  -0.27480
C          C       0.50105   0.53738   0.76295   0.20955
C          C       0.42001   0.93587   0.62521   0.20599
C          C       0.00322   0.46206   0.71013   0.19762
C          C       0.45316   0.42703   0.74833   0.19033
C          C       0.54359   0.01843   0.79171   0.19894
C          C       0.95051   0.51883   0.76935   0.19615
C          C       0.58326   0.62937   0.83106  -0.18813
C          C       0.32271   0.88858   0.37123  -0.18956
C          C       0.00527   0.37939   0.66197  -0.18673
C          C       0.37262   0.33814   0.70020  -0.18617
C          C       0.63821   0.04347   0.93155  -0.19062
C          C       0.93887   0.59109   0.75601  -0.19093
N          N       0.43449   0.62480   0.27113  -0.25442
N          N       0.40745   0.82209   0.24073  -0.24708
N          N       0.20080   0.59095   0.18768  -0.23693
N          N       0.62052   0.42261   0.29978  -0.21844
N          N       0.63302   0.21041   0.28322  -0.22282
N          N       0.83496   0.42286   0.28275  -0.24297
N          N       0.46994   0.60983   0.25259  -0.09449
N          N       0.41700   0.86774   0.21641  -0.08685
N          N       0.15246   0.55015   0.18333  -0.07822
N          N       0.58518   0.43774   0.31837  -0.10107
N          N       0.62247   0.16669   0.32008  -0.07667
N          N       0.88457   0.46079   0.28774  -0.07729
N          N       0.37802   0.57523   0.70231  -0.22021
N          N       0.36976   0.78811   0.71512  -0.22421
N          N       0.16234   0.57312   0.70793  -0.23901
N          N       0.56488   0.37522   0.73318  -0.25212
N          N       0.59238   0.17584   0.75154  -0.24727
N          N       0.79865   0.40965   0.81676  -0.24009
N          N       0.41483   0.56171   0.69272  -0.10235
N          N       0.38016   0.83159   0.67724  -0.07946
N          N       0.11271   0.53470   0.70250  -0.08218
N          N       0.53128   0.39202   0.76205  -0.09514
N          N       0.58364   0.13052   0.77747  -0.09598
N          N       0.84628   0.44986   0.81645  -0.07672
O          O       0.47112   0.69340   0.17811  -0.45763
O          O       0.30674   0.76587   0.09759  -0.44187
O          O       0.23277   0.53351   0.14605  -0.43954
O          O       0.58661   0.35816   0.40581  -0.47810
O          O       0.73456   0.27511   0.48975  -0.46503
O          O       0.81377   0.48956   0.34429  -0.43639
O          O       0.57303   0.62488   0.25424  -0.18969
O          O       0.39984   0.93763   0.11554  -0.13817
O          O       0.07605   0.45529   0.19951  -0.14339
O          O       0.48143   0.41593   0.27126  -0.13985
O          O       0.63778   0.08249   0.36869  -0.20596
O          O       0.96563   0.55864   0.31074  -0.13886
O          O       0.41341   0.64007   0.59873  -0.48170
O          O       0.26825   0.72838   0.53366  -0.46539
O          O       0.18549   0.50815   0.65166  -0.43770
O          O       0.52750   0.30510   0.82010  -0.45591
O          O       0.69432   0.23862   0.92918  -0.44711
O          O       0.76610   0.46653   0.85756  -0.43877
O          O       0.52278   0.59108   0.77624  -0.14232
O          O       0.36053   0.89323   0.53744  -0.14759
O          O       0.02898   0.43559   0.67293  -0.13789
O          O       0.43079   0.37277   0.73337  -0.14406
O          O       0.60167   0.05728   0.85515  -0.13717
O          O       0.92127   0.54193   0.78489  -0.14312

