data_crystal

_audit_creation_method 'AiiDA-DDEC plugin'

_cell_length_a        36.96871
_cell_length_b        36.86785
_cell_length_c         8.18876

_cell_angle_alpha     90.56131
_cell_angle_beta     90.62019
_cell_angle_gamma     89.92421

_symmetry_space_group_name_Hall 'P 1'
_symmetry_space_group_name_H-M  'P 1'

loop_
_symmetry_equiv_pos_as_xyz
 'x,y,z'

loop_
_atom_site_label
_atom_site_type_symbol
_atom_site_fract_x
_atom_site_fract_y
_atom_site_fract_z
_atom_site_charge
H          H       0.45714   0.86666   0.35075   0.12591
H          H       0.54469   0.13189   0.37459   0.12668
H          H       0.13356   0.45456   0.36592   0.12693
H          H       0.86994   0.54348   0.37984   0.12517
H          H       0.52939   0.86315   0.36806   0.12388
H          H       0.47231   0.13506   0.38055   0.12246
H          H       0.13786   0.52695   0.37408   0.12270
H          H       0.86520   0.47091   0.37264   0.12133
H          H       0.47136   0.00031   0.26744   0.27723
H          H       0.53095   0.99809   0.26710   0.27560
H          H       0.99902   0.46916   0.27224   0.27684
H          H       0.00333   0.52899   0.27850   0.27766
H          H       0.36552   0.97122   0.11182   0.13171
H          H       0.63803   0.02774   0.14582   0.13267
H          H       0.02870   0.36182   0.13762   0.13146
H          H       0.97254   0.63540   0.14281   0.13128
H          H       0.36945   0.04369   0.12808   0.13452
H          H       0.63437   0.95526   0.15432   0.13726
H          H       0.95661   0.36607   0.13970   0.13654
H          H       0.04491   0.63125   0.14168   0.13501
H          H       0.57008   0.12731   0.10314   0.10593
H          H       0.43044   0.87046   0.08014   0.10721
H          H       0.87465   0.56794   0.10144   0.10522
H          H       0.12736   0.42878   0.09106   0.10609
H          H       0.61701   0.17395   0.10040   0.11986
H          H       0.38266   0.82469   0.07959   0.11903
H          H       0.82753   0.61465   0.09458   0.11920
H          H       0.17380   0.38162   0.08151   0.11927
H          H       0.68577   0.10542   0.39520   0.10812
H          H       0.31673   0.89619   0.37308   0.10821
H          H       0.89534   0.68404   0.39489   0.10782
H          H       0.10680   0.31352   0.37906   0.10828
H          H       0.63750   0.05943   0.40193   0.10357
H          H       0.36564   0.94146   0.37561   0.10338
H          H       0.94191   0.63623   0.40392   0.10455
H          H       0.06113   0.36196   0.39299   0.10502
H          H       0.69460   0.27413   0.12286   0.12259
H          H       0.29611   0.73063   0.04712   0.11378
H          H       0.73022   0.69878   0.06589   0.11768
H          H       0.26889   0.29494   0.03646   0.11362
H          H       0.74562   0.31456   0.17505   0.10987
H          H       0.24570   0.69100   0.10369   0.10422
H          H       0.69021   0.74968   0.11835   0.10589
H          H       0.30881   0.24385   0.08961   0.10428
H          H       0.80734   0.22484   0.36540   0.12216
H          H       0.20378   0.77027   0.44441   0.11365
H          H       0.76856   0.79440   0.45904   0.11467
H          H       0.23126   0.20079   0.42642   0.11346
H          H       0.75633   0.18436   0.31332   0.11020
H          H       0.25434   0.80998   0.38754   0.10526
H          H       0.80855   0.74353   0.40635   0.10457
H          H       0.19131   0.25165   0.37278   0.10484
H          H       0.88251   0.32661   0.40739   0.11855
H          H       0.11768   0.67379   0.40847   0.11892
H          H       0.67402   0.88064   0.42073   0.11891
H          H       0.32781   0.11656   0.40526   0.11853
H          H       0.92956   0.37310   0.40743   0.10040
H          H       0.07164   0.62644   0.40811   0.10175
H          H       0.62791   0.92814   0.41721   0.10255
H          H       0.37454   0.06973   0.40509   0.10114
H          H       0.86379   0.44090   0.10096   0.10815
H          H       0.13865   0.55752   0.11238   0.10912
H          H       0.55949   0.86229   0.10851   0.10856
H          H       0.44260   0.13588   0.10904   0.10719
H          H       0.81527   0.39507   0.10531   0.10898
H          H       0.18607   0.60444   0.11680   0.10893
H          H       0.60493   0.81341   0.11641   0.10892
H          H       0.39613   0.18390   0.11017   0.10833
H          H       0.70776   0.16046   0.33078   0.10384
H          H       0.29355   0.84151   0.31176   0.10523
H          H       0.84102   0.70600   0.32290   0.10550
H          H       0.16000   0.29043   0.30132   0.10350
H          H       0.79348   0.33933   0.16474   0.10397
H          H       0.20756   0.65960   0.17846   0.10464
H          H       0.65954   0.79078   0.18147   0.10404
H          H       0.34159   0.20644   0.17418   0.10603
H          H       0.45572   0.86781   0.84707   0.12572
H          H       0.54181   0.13376   0.88040   0.12705
H          H       0.13179   0.45704   0.86334   0.12656
H          H       0.86691   0.54621   0.86545   0.12721
H          H       0.52807   0.86471   0.86484   0.12207
H          H       0.46946   0.13701   0.87939   0.12521
H          H       0.13621   0.52941   0.86527   0.12519
H          H       0.86256   0.47373   0.87003   0.12476
H          H       0.46931   0.00222   0.76460   0.27531
H          H       0.52905   0.00021   0.77665   0.27753
H          H       0.99678   0.47160   0.77570   0.27758
H          H       0.00105   0.53118   0.77147   0.27692
H          H       0.36277   0.97209   0.62236   0.13516
H          H       0.63511   0.03022   0.64241   0.13084
H          H       0.02689   0.36514   0.63019   0.13155
H          H       0.97058   0.63834   0.64541   0.13127
H          H       0.36618   0.04449   0.63574   0.13639
H          H       0.63172   0.95764   0.64888   0.13559
H          H       0.95461   0.36889   0.63646   0.13545
H          H       0.04295   0.63404   0.64478   0.13675
H          H       0.56716   0.12986   0.60982   0.10700
H          H       0.42826   0.87309   0.57116   0.10543
H          H       0.87151   0.57344   0.59468   0.10585
H          H       0.12525   0.42953   0.59210   0.10516
H          H       0.61458   0.17603   0.60138   0.11985
H          H       0.38147   0.82629   0.57260   0.11833
H          H       0.82527   0.62073   0.60238   0.12008
H          H       0.17042   0.38130   0.58472   0.11872
H          H       0.68422   0.10667   0.88811   0.10785
H          H       0.31684   0.89436   0.88754   0.10783
H          H       0.89507   0.68572   0.91329   0.10779
H          H       0.10248   0.31600   0.89070   0.10898
H          H       0.63553   0.06133   0.90143   0.10404
H          H       0.36459   0.94076   0.88655   0.10271
H          H       0.94090   0.63719   0.90749   0.10325
H          H       0.05761   0.36543   0.89877   0.10294
H          H       0.70222   0.26906   0.54393   0.11446
H          H       0.30597   0.72413   0.62534   0.12231
H          H       0.72493   0.69763   0.64795   0.12232
H          H       0.27063   0.30622   0.62103   0.12270
H          H       0.75348   0.30878   0.59483   0.10512
H          H       0.25544   0.68406   0.68447   0.11037
H          H       0.68515   0.74884   0.70509   0.10944
H          H       0.31200   0.25597   0.67396   0.11059
H          H       0.79759   0.23158   0.93672   0.11429
H          H       0.19518   0.77533   0.87257   0.12263
H          H       0.77551   0.80888   0.90588   0.12184
H          H       0.22278   0.19188   0.84479   0.12412
H          H       0.74656   0.19170   0.88451   0.10446
H          H       0.24574   0.81536   0.81372   0.10993
H          H       0.81531   0.75738   0.84982   0.10934
H          H       0.18145   0.24225   0.79163   0.11038
H          H       0.88274   0.32725   0.90140   0.11971
H          H       0.11934   0.67355   0.91896   0.11869
H          H       0.67180   0.88539   0.93623   0.11788
H          H       0.32524   0.11899   0.90003   0.11839
H          H       0.92888   0.37455   0.90430   0.10089
H          H       0.07146   0.62802   0.91273   0.10250
H          H       0.62440   0.93185   0.92516   0.09917
H          H       0.37186   0.07218   0.90493   0.10239
H          H       0.86111   0.44286   0.60911   0.10892
H          H       0.13501   0.55936   0.60139   0.10691
H          H       0.56041   0.86487   0.60286   0.10808
H          H       0.44069   0.13763   0.60915   0.10835
H          H       0.81360   0.39600   0.60919   0.10845
H          H       0.18394   0.60460   0.60744   0.11166
H          H       0.60751   0.81743   0.61375   0.10875
H          H       0.39442   0.18569   0.60616   0.10895
H          H       0.70660   0.16076   0.81902   0.10373
H          H       0.29478   0.83899   0.82744   0.10307
H          H       0.83982   0.70867   0.85550   0.10413
H          H       0.15728   0.29241   0.82275   0.10501
H          H       0.79242   0.34071   0.66711   0.10479
H          H       0.20699   0.65976   0.67352   0.10299
H          H       0.66228   0.79654   0.68667   0.10295
H          H       0.33769   0.20731   0.65829   0.10474
C          C       0.47627   0.88766   0.32017  -0.18697
C          C       0.52577   0.11076   0.34003  -0.18718
C          C       0.11263   0.47376   0.33306  -0.18757
C          C       0.89043   0.52428   0.34195  -0.18439
C          C       0.51303   0.88585   0.32850  -0.19068
C          C       0.48900   0.11245   0.34257  -0.18695
C          C       0.11487   0.51063   0.33644  -0.18909
C          C       0.88799   0.48745   0.33852  -0.18792
C          C       0.52639   0.92093   0.27534   0.19374
C          C       0.47597   0.07736   0.28421   0.19266
C          C       0.07979   0.52410   0.28146   0.19268
C          C       0.92274   0.47406   0.28114   0.19455
C          C       0.46736   0.92395   0.26309   0.19229
C          C       0.53498   0.07443   0.28169   0.19304
C          C       0.07609   0.46488   0.27713   0.19205
C          C       0.92664   0.53312   0.28563   0.19466
C          C       0.43162   0.93614   0.23084  -0.07258
C          C       0.57083   0.06242   0.25257  -0.07354
C          C       0.06364   0.42896   0.24777  -0.07287
C          C       0.93884   0.56892   0.25742  -0.07321
C          C       0.42239   0.97284   0.20583   0.18380
C          C       0.58036   0.02580   0.22421   0.18286
C          C       0.02695   0.41966   0.22152   0.18260
C          C       0.97522   0.57825   0.22919   0.18473
C          C       0.42584   0.03421   0.21761   0.18397
C          C       0.57700   0.96432   0.22700   0.18331
C          C       0.96561   0.42332   0.22253   0.18269
C          C       0.03647   0.57467   0.22785   0.18348
C          C       0.38842   0.98728   0.15199  -0.18910
C          C       0.61481   0.01153   0.17747  -0.18864
C          C       0.01264   0.38525   0.17056  -0.18969
C          C       0.98904   0.61236   0.17627  -0.18875
C          C       0.39049   0.02452   0.15948  -0.18560
C          C       0.61285   0.97426   0.18050  -0.18932
C          C       0.97549   0.38745   0.17124  -0.18663
C          C       0.02620   0.61019   0.17550  -0.18677
C          C       0.43909   0.06935   0.25337  -0.07132
C          C       0.56351   0.92907   0.25452  -0.07416
C          C       0.93049   0.43701   0.25129  -0.07397
C          C       0.07182   0.56123   0.25569  -0.07231
C          C       0.60009   0.08968   0.25144   0.08562
C          C       0.40188   0.90945   0.22761   0.08541
C          C       0.91174   0.59833   0.25314   0.08607
C          C       0.09059   0.39930   0.24211   0.08303
C          C       0.59534   0.12276   0.16881  -0.12207
C          C       0.40565   0.87580   0.14627  -0.12268
C          C       0.87877   0.59327   0.16782  -0.12111
C          C       0.12317   0.40367   0.15634  -0.12059
C          C       0.62210   0.14906   0.16650  -0.11152
C          C       0.37838   0.85001   0.14519  -0.11200
C          C       0.85224   0.61984   0.16348  -0.11367
C          C       0.14931   0.37671   0.14962  -0.11030
C          C       0.66047   0.11018   0.32958  -0.12923
C          C       0.34147   0.89061   0.30632  -0.12984
C          C       0.89086   0.65872   0.32829  -0.12922
C          C       0.11117   0.33863   0.31319  -0.13158
C          C       0.63345   0.08409   0.33246  -0.13575
C          C       0.36893   0.91624   0.30751  -0.13548
C          C       0.91724   0.63191   0.33301  -0.13800
C          C       0.08529   0.36591   0.32089  -0.13497
C          C       0.72089   0.22607   0.21537   0.06193
C          C       0.27965   0.77379   0.21134   0.06507
C          C       0.77315   0.71701   0.22818   0.06239
C          C       0.22674   0.27785   0.19966   0.06342
C          C       0.71935   0.26317   0.17588  -0.11887
C          C       0.27609   0.73946   0.13537  -0.11908
C          C       0.73888   0.71978   0.15190  -0.12074
C          C       0.26064   0.27454   0.12352  -0.11965
C          C       0.74852   0.28606   0.20525  -0.12724
C          C       0.24725   0.71678   0.16881  -0.12762
C          C       0.71600   0.74887   0.18320  -0.12601
C          C       0.28348   0.24547   0.15539  -0.12795
C          C       0.78259   0.23578   0.31242  -0.11874
C          C       0.22380   0.76148   0.35599  -0.11785
C          C       0.76015   0.77375   0.37078  -0.11971
C          C       0.23965   0.22133   0.34030  -0.11940
C          C       0.75341   0.21287   0.28313  -0.12814
C          C       0.25269   0.78419   0.32248  -0.12929
C          C       0.78307   0.74471   0.33920  -0.12979
C          C       0.21681   0.25035   0.30833  -0.12681
C          C       0.87783   0.35141   0.34011  -0.11421
C          C       0.12285   0.64859   0.34325  -0.11302
C          C       0.64921   0.87609   0.35160  -0.11329
C          C       0.35254   0.12127   0.33870  -0.11445
C          C       0.90468   0.37758   0.33895  -0.12713
C          C       0.09654   0.62184   0.34180  -0.12718
C          C       0.62320   0.90325   0.34813  -0.12735
C          C       0.37898   0.09457   0.33811  -0.12856
C          C       0.90062   0.41040   0.25365   0.08652
C          C       0.10123   0.58836   0.25952   0.08474
C          C       0.59027   0.89928   0.26107   0.08497
C          C       0.41207   0.09895   0.25654   0.08501
C          C       0.86747   0.41627   0.17130  -0.12923
C          C       0.13445   0.58261   0.18038  -0.13120
C          C       0.58427   0.86596   0.17933  -0.13002
C          C       0.41776   0.13207   0.17648  -0.13121
C          C       0.84029   0.39026   0.17312  -0.12703
C          C       0.16105   0.60919   0.18261  -0.12837
C          C       0.61002   0.83853   0.18366  -0.12863
C          C       0.39143   0.15898   0.17692  -0.12598
C          C       0.68890   0.20283   0.18625  -0.00093
C          C       0.31116   0.79685   0.17525   0.00405
C          C       0.79664   0.68548   0.19359   0.00860
C          C       0.20345   0.30964   0.16729   0.00297
C          C       0.68512   0.16916   0.25416  -0.15000
C          C       0.31569   0.83134   0.23724  -0.15182
C          C       0.83140   0.68258   0.25293  -0.15150
C          C       0.16940   0.31343   0.23089  -0.14806
C          C       0.65564   0.14341   0.24690   0.09700
C          C       0.34539   0.85665   0.22608   0.09795
C          C       0.85751   0.65344   0.24483   0.09880
C          C       0.14391   0.34315   0.22760   0.09594
C          C       0.81240   0.29663   0.30784  -0.00184
C          C       0.18900   0.70365   0.31552   0.00513
C          C       0.70274   0.80854   0.32718   0.00175
C          C       0.29735   0.18694   0.30252   0.00467
C          C       0.84478   0.35695   0.25568   0.09630
C          C       0.15607   0.64302   0.26282   0.09678
C          C       0.64337   0.84278   0.26839   0.09587
C          C       0.35798   0.15435   0.25674   0.09664
C          C       0.81580   0.33073   0.24346  -0.14714
C          C       0.18511   0.66913   0.25269  -0.15232
C          C       0.66886   0.81305   0.25951  -0.15304
C          C       0.33199   0.18358   0.24506  -0.15105
C          C       0.78093   0.27295   0.27425   0.06375
C          C       0.22028   0.72712   0.27997   0.06264
C          C       0.72606   0.77680   0.29299   0.06167
C          C       0.27373   0.21822   0.26562   0.06238
C          C       0.66156   0.21831   0.08466   0.24213
C          C       0.33752   0.78047   0.07244   0.24656
C          C       0.78068   0.65758   0.09527   0.24487
C          C       0.21919   0.33712   0.06983   0.24632
C          C       0.83937   0.28124   0.41171   0.24416
C          C       0.16220   0.71934   0.41799   0.24656
C          C       0.71823   0.83508   0.43422   0.24584
C          C       0.28167   0.15965   0.40143   0.24740
C          C       0.47476   0.88900   0.81838  -0.18694
C          C       0.52303   0.11267   0.84355  -0.18672
C          C       0.11074   0.47615   0.83098  -0.18444
C          C       0.88765   0.52685   0.83244  -0.18744
C          C       0.51151   0.88740   0.82682  -0.18668
C          C       0.48625   0.11434   0.84316  -0.19189
C          C       0.11301   0.51299   0.83182  -0.19159
C          C       0.88546   0.48999   0.83446  -0.19023
C          C       0.52460   0.92281   0.77677   0.19409
C          C       0.47344   0.07914   0.78460   0.19224
C          C       0.07768   0.52637   0.77910   0.19338
C          C       0.92040   0.47643   0.78012   0.19417
C          C       0.46562   0.92549   0.76441   0.19309
C          C       0.53249   0.07640   0.78572   0.19248
C          C       0.07401   0.46724   0.77801   0.19335
C          C       0.92403   0.53559   0.77808   0.19204
C          C       0.42980   0.93754   0.73339  -0.07257
C          C       0.56840   0.06461   0.75650  -0.07135
C          C       0.06145   0.43143   0.74955  -0.07203
C          C       0.93641   0.57142   0.75138  -0.07391
C          C       0.42024   0.97421   0.70905   0.18324
C          C       0.57806   0.02802   0.72795   0.18212
C          C       0.02481   0.42236   0.72116   0.18408
C          C       0.97294   0.58065   0.72461   0.18296
C          C       0.42328   0.03574   0.71912   0.18249
C          C       0.57489   0.96658   0.73012   0.18467
C          C       0.96353   0.42580   0.72347   0.18421
C          C       0.03428   0.57698   0.72467   0.18350
C          C       0.38586   0.98836   0.65880  -0.19069
C          C       0.61224   0.01387   0.67689  -0.18776
C          C       0.01065   0.38817   0.66688  -0.18664
C          C       0.98697   0.61500   0.67580  -0.18901
C          C       0.38766   0.02564   0.66528  -0.18825
C          C       0.61042   0.97659   0.67939  -0.18625
C          C       0.97349   0.39017   0.66916  -0.18842
C          C       0.02414   0.61279   0.67558  -0.18699
C          C       0.43656   0.07100   0.75318  -0.07440
C          C       0.56161   0.93124   0.75681  -0.07205
C          C       0.92835   0.43927   0.75297  -0.07333
C          C       0.06957   0.56343   0.75288  -0.07305
C          C       0.59768   0.09180   0.75369   0.08506
C          C       0.40036   0.91040   0.72988   0.08596
C          C       0.90963   0.60128   0.75184   0.08484
C          C       0.08802   0.40143   0.74627   0.08580
C          C       0.59279   0.12498   0.67188  -0.12346
C          C       0.40401   0.87747   0.64252  -0.12117
C          C       0.87640   0.59784   0.66691  -0.12019
C          C       0.12057   0.40483   0.65984  -0.12309
C          C       0.61983   0.15097   0.66602  -0.11205
C          C       0.37725   0.85111   0.64221  -0.11173
C          C       0.85032   0.62491   0.67009  -0.11409
C          C       0.14608   0.37727   0.65495  -0.11138
C          C       0.65869   0.11166   0.82460  -0.12998
C          C       0.34105   0.88975   0.81570  -0.12655
C          C       0.88993   0.66126   0.84128  -0.12862
C          C       0.10744   0.34073   0.82298  -0.12803
C          C       0.63139   0.08591   0.83131  -0.13510
C          C       0.36792   0.91600   0.81535  -0.13858
C          C       0.91586   0.63398   0.83814  -0.13533
C          C       0.08201   0.36847   0.82738  -0.13668
C          C       0.71982   0.22695   0.70919   0.06310
C          C       0.28032   0.77291   0.71563   0.06346
C          C       0.77327   0.72297   0.74582   0.06184
C          C       0.22292   0.27881   0.70512   0.06244
C          C       0.72299   0.26068   0.63078  -0.12088
C          C       0.28165   0.73548   0.67949  -0.11687
C          C       0.73616   0.72197   0.70497  -0.11824
C          C       0.26009   0.28111   0.67030  -0.11831
C          C       0.75226   0.28341   0.66100  -0.12668
C          C       0.25269   0.71282   0.71234  -0.12981
C          C       0.71366   0.75129   0.73687  -0.13125
C          C       0.28345   0.25233   0.69951  -0.12665
C          C       0.77694   0.23985   0.84898  -0.12003
C          C       0.21948   0.76393   0.81842  -0.11853
C          C       0.76421   0.78439   0.85049  -0.11700
C          C       0.23345   0.21700   0.79613  -0.11983
C          C       0.74773   0.21707   0.81834  -0.12713
C          C       0.24845   0.78659   0.78580  -0.12859
C          C       0.78673   0.75498   0.81893  -0.12692
C          C       0.21006   0.24583   0.76693  -0.12939
C          C       0.87749   0.35222   0.83612  -0.11584
C          C       0.12331   0.64885   0.84833  -0.11413
C          C       0.64771   0.88042   0.86260  -0.11292
C          C       0.35019   0.12360   0.83508  -0.11356
C          C       0.90383   0.37893   0.83676  -0.12587
C          C       0.09603   0.62308   0.84451  -0.12948
C          C       0.62100   0.90678   0.85601  -0.12820
C          C       0.37655   0.09683   0.83684  -0.12878
C          C       0.89895   0.41217   0.75535   0.08470
C          C       0.09939   0.59014   0.75693   0.08653
C          C       0.58886   0.90194   0.76413   0.08560
C          C       0.40971   0.10081   0.75547   0.08751
C          C       0.86550   0.41781   0.67534  -0.13201
C          C       0.13203   0.58403   0.67374  -0.13075
C          C       0.58440   0.86886   0.67886  -0.13011
C          C       0.41566   0.13391   0.67533  -0.13139
C          C       0.83888   0.39127   0.67508  -0.12727
C          C       0.15948   0.60973   0.67695  -0.12920
C          C       0.61108   0.84234   0.68467  -0.12557
C          C       0.38939   0.16091   0.67351  -0.12614
C          C       0.68770   0.20394   0.67912   0.00374
C          C       0.31159   0.79622   0.67866   0.00128
C          C       0.79638   0.69123   0.71007  -0.00220
C          C       0.19932   0.31051   0.67624  -0.00166
C          C       0.68369   0.17016   0.74593  -0.14907
C          C       0.31604   0.83033   0.74449  -0.14904
C          C       0.83055   0.68687   0.77451  -0.15102
C          C       0.16580   0.31456   0.74477  -0.15024
C          C       0.65383   0.14489   0.74185   0.09828
C          C       0.34495   0.85645   0.73021   0.09470
C          C       0.85629   0.65750   0.75861   0.09522
C          C       0.14028   0.34430   0.73736   0.09500
C          C       0.81142   0.29734   0.80601   0.00265
C          C       0.18918   0.70329   0.81579  -0.00147
C          C       0.70365   0.81510   0.84044   0.00159
C          C       0.29488   0.18848   0.79829  -0.00219
C          C       0.84409   0.35763   0.75412   0.09784
C          C       0.15587   0.64304   0.76295   0.09625
C          C       0.64352   0.84738   0.77563   0.09700
C          C       0.35569   0.15646   0.75150   0.09360
C          C       0.81502   0.33151   0.74266  -0.15132
C          C       0.18510   0.66891   0.75198  -0.14712
C          C       0.67011   0.81870   0.76864  -0.14636
C          C       0.32917   0.18520   0.73646  -0.14726
C          C       0.77996   0.27371   0.77146   0.06307
C          C       0.22070   0.72652   0.78139   0.06407
C          C       0.72710   0.78336   0.80935   0.06560
C          C       0.27074   0.21951   0.76356   0.06428
C          C       0.66029   0.21955   0.57830   0.24614
C          C       0.33758   0.78053   0.57223   0.24306
C          C       0.78038   0.66477   0.60412   0.24237
C          C       0.21439   0.33758   0.57449   0.24335
C          C       0.83864   0.28208   0.90897   0.24739
C          C       0.16259   0.71952   0.91773   0.24453
C          C       0.71850   0.84229   0.94592   0.24393
C          C       0.27979   0.16164   0.90108   0.24367
N          N       0.49818   0.94410   0.24249  -0.40581
N          N       0.50434   0.05416   0.25473  -0.40544
N          N       0.05623   0.49588   0.25256  -0.40589
N          N       0.94627   0.50218   0.25607  -0.40658
N          N       0.44444   0.00217   0.23945  -0.25470
N          N       0.55813   0.99630   0.24729  -0.25478
N          N       0.99754   0.44201   0.24720  -0.25516
N          N       0.00478   0.55608   0.25454  -0.25502
N          N       0.64051   0.23202  -0.00312  -0.35451
N          N       0.35793   0.76609   0.98449  -0.35761
N          N       0.76685   0.63578   0.01051  -0.35761
N          N       0.23307   0.35866   0.98715  -0.35811
N          N       0.86007   0.26750   0.50114  -0.35736
N          N       0.14109   0.73282   0.50540  -0.35968
N          N       0.73193   0.85560   0.52576  -0.35800
N          N       0.26822   0.13830   0.48657  -0.35977
N          N       0.49626   0.94595   0.74543  -0.40603
N          N       0.50195   0.05603   0.75727  -0.40483
N          N       0.05404   0.49815   0.75308  -0.40532
N          N       0.94384   0.50457   0.75277  -0.40618
N          N       0.44225   0.00380   0.73914  -0.25505
N          N       0.55609   0.99847   0.75368  -0.25427
N          N       0.99538   0.44455   0.74869  -0.25432
N          N       0.00247   0.55829   0.74808  -0.25672
N          N       0.63891   0.23319   0.49193  -0.35786
N          N       0.35780   0.76671   0.48168  -0.35556
N          N       0.76639   0.64423   0.51359  -0.35364
N          N       0.22766   0.35868   0.48754  -0.35362
N          N       0.85992   0.26878  -0.00311  -0.36036
N          N       0.14201   0.73398   0.00448  -0.35735
N          N       0.73154   0.86369   0.03525  -0.35899
N          N       0.26658   0.14087   0.98978  -0.35720

