data_crystal

_audit_creation_method 'AiiDA-DDEC plugin'

_cell_length_a        33.43897
_cell_length_b        33.62684
_cell_length_c         7.84210

_cell_angle_alpha     72.11263
_cell_angle_beta     73.52348
_cell_angle_gamma     119.52507

_symmetry_space_group_name_Hall 'P 1'
_symmetry_space_group_name_H-M  'P 1'

loop_
_symmetry_equiv_pos_as_xyz
 'x,y,z'

loop_
_atom_site_label
_atom_site_type_symbol
_atom_site_fract_x
_atom_site_fract_y
_atom_site_fract_z
_atom_site_charge
H          H       0.46374   0.70941   0.22966   0.13758
H          H       0.31090   0.76296   0.27614   0.14071
H          H       0.24812   0.55463   0.31211   0.14006
H          H       0.55805   0.30968   0.26335   0.13734
H          H       0.71246   0.25950   0.22281   0.14093
H          H       0.77360   0.46919   0.17120   0.13993
H          H       0.70907   0.46210   0.22404   0.13848
H          H       0.76591   0.31285   0.25600   0.13985
H          H       0.55532   0.24936   0.29262   0.14033
H          H       0.30944   0.55858   0.27579   0.13660
H          H       0.25923   0.71251   0.22992   0.14099
H          H       0.46995   0.77438   0.17860   0.14133
H          H       0.54084   0.62462   0.24782   0.15277
H          H       0.38861   0.91912   0.30519   0.15582
H          H       0.08266   0.47010   0.35288   0.16190
H          H       0.47604   0.39062   0.25161   0.15130
H          H       0.63497   0.10161   0.19735   0.15975
H          H       0.93969   0.55603   0.13480   0.15774
H          H       0.62494   0.53947   0.24121   0.15375
H          H       0.92057   0.38985   0.30216   0.15881
H          H       0.47190   0.08608   0.32237   0.15784
H          H       0.39044   0.47699   0.25867   0.15242
H          H       0.10307   0.63689   0.18510   0.16210
H          H       0.55356   0.93747   0.16105   0.15803
H          H       0.44288   0.69046   0.73361   0.13892
H          H       0.28796   0.74120   0.77784   0.14000
H          H       0.22675   0.53177   0.82764   0.14077
H          H       0.53650   0.29090   0.77388   0.13795
H          H       0.68839   0.23690   0.72593   0.14115
H          H       0.75280   0.44628   0.68660   0.14133
H          H       0.69010   0.44165   0.73108   0.13722
H          H       0.74233   0.28919   0.75968   0.14011
H          H       0.53100   0.22796   0.81467   0.13888
H          H       0.28899   0.53689   0.78860   0.13855
H          H       0.23582   0.68889   0.73986   0.14033
H          H       0.44627   0.75277   0.69927   0.14238
H          H       0.52318   0.60784   0.74077   0.15197
H          H       0.36342   0.89790   0.80679   0.16177
H          H       0.06187   0.44497   0.86251   0.15864
H          H       0.45721   0.37254   0.76413   0.15207
H          H       0.60864   0.07972   0.70674   0.16132
H          H       0.91843   0.53029   0.64753   0.16172
H          H       0.60837   0.52322   0.73908   0.15221
H          H       0.89818   0.36381   0.80850   0.16263
H          H       0.44548   0.06426   0.83752   0.16264
H          H       0.37013   0.45666   0.77527   0.15372
H          H       0.07965   0.61031   0.69929   0.15874
H          H       0.52834   0.91664   0.67405   0.16233
C          C       0.34505   0.72270   0.24471   0.03232
C          C       0.29809   0.63408   0.27155   0.03654
C          C       0.38772   0.67933   0.24054   0.03383
C          C       0.67828   0.30013   0.24666   0.03169
C          C       0.72433   0.38903   0.21776   0.03080
C          C       0.63465   0.34246   0.24868   0.03383
C          C       0.72312   0.34511   0.23234   0.03274
C          C       0.63415   0.29843   0.25808   0.03415
C          C       0.67908   0.38704   0.23005   0.03340
C          C       0.29987   0.67818   0.25844   0.03030
C          C       0.38944   0.72433   0.22841   0.02904
C          C       0.34256   0.63487   0.26133   0.03502
C          C       0.42919   0.67747   0.23856  -0.22928
C          C       0.34528   0.76427   0.25218  -0.22883
C          C       0.25265   0.59024   0.29404  -0.22462
C          C       0.59191   0.34228   0.25486  -0.22574
C          C       0.67858   0.25868   0.24067  -0.21754
C          C       0.77001   0.43392   0.19046  -0.21315
C          C       0.67741   0.42829   0.22902  -0.22775
C          C       0.76572   0.34623   0.23628  -0.22875
C          C       0.59060   0.25351   0.27778  -0.22412
C          C       0.34219   0.59224   0.26761  -0.22516
C          C       0.25808   0.67833   0.25185  -0.21954
C          C       0.43425   0.77019   0.20067  -0.21675
C          C       0.42697   0.63454   0.25087   0.14089
C          C       0.38852   0.80710   0.23489   0.14202
C          C       0.21179   0.59081   0.29257   0.14452
C          C       0.59159   0.38334   0.25107   0.14276
C          C       0.63665   0.21670   0.24887   0.13356
C          C       0.81175   0.43464   0.18869   0.13537
C          C       0.63440   0.42624   0.24114   0.13748
C          C       0.80869   0.38952   0.21842   0.14247
C          C       0.59152   0.21325   0.27416   0.14215
C          C       0.38348   0.59184   0.26290   0.14209
C          C       0.21536   0.63609   0.26418   0.13319
C          C       0.43426   0.81123   0.20113   0.14115
C          C       0.42320   0.55046   0.26049   0.14884
C          C       0.47472   0.89145   0.20240   0.15018
C          C       0.13637   0.59718   0.25170   0.14810
C          C       0.59230   0.46524   0.24591   0.14580
C          C       0.55108   0.13278   0.27697   0.14364
C          C       0.88793   0.42979   0.22865   0.14001
C          C       0.54995   0.42284   0.25184   0.15107
C          C       0.89269   0.47631   0.18677   0.14944
C          C       0.59720   0.13728   0.24238   0.14765
C          C       0.46615   0.59253   0.25392   0.14322
C          C       0.13097   0.55039   0.29469   0.14400
C          C       0.42820   0.88631   0.24248   0.14469
C          C       0.50783   0.59251   0.25024  -0.18388
C          C       0.42453   0.92307   0.27390  -0.18630
C          C       0.08758   0.50684   0.31358  -0.18948
C          C       0.50850   0.42293   0.25055  -0.18282
C          C       0.59958   0.09865   0.22304  -0.17887
C          C       0.93521   0.51952   0.17320  -0.17669
C          C       0.59272   0.50685   0.24284  -0.19006
C          C       0.92432   0.42591   0.26708  -0.18813
C          C       0.50754   0.08947   0.29512  -0.18396
C          C       0.42299   0.50925   0.25744  -0.18418
C          C       0.09919   0.60078   0.21986  -0.18350
C          C       0.51743   0.93332   0.19275  -0.17534
C          C       0.46492   0.50882   0.25345  -0.02247
C          C       0.51403   0.97059   0.22426  -0.03985
C          C       0.05612   0.55765   0.23276  -0.03932
C          C       0.55064   0.50668   0.24600  -0.02269
C          C       0.50972   0.05046   0.27489  -0.04235
C          C       0.96644   0.46873   0.25887  -0.04143
C          C       0.50831   0.46467   0.24893  -0.02637
C          C       0.97235   0.51613   0.21009  -0.03355
C          C       0.55607   0.05514   0.23861  -0.04254
C          C       0.50740   0.55064   0.25039  -0.02861
C          C       0.04994   0.51014   0.28161  -0.04317
C          C       0.46737   0.96550   0.26430  -0.03752
C          C       0.55188   0.55109   0.24936   0.33584
C          C       0.46280   0.00504   0.29213   0.32793
C          C       0.00449   0.46308   0.29999   0.33005
C          C       0.46424   0.46486   0.24630   0.34072
C          C       0.56052   0.01548   0.21059   0.34077
C          C       0.01773   0.56308   0.19292   0.33765
C          C       0.32229   0.70081   0.75180   0.02771
C          C       0.27624   0.61179   0.78210   0.03516
C          C       0.36608   0.65850   0.74955   0.03195
C          C       0.65546   0.27839   0.75249   0.03303
C          C       0.70261   0.36679   0.72808   0.03546
C          C       0.61291   0.32172   0.76024   0.03449
C          C       0.70088   0.32284   0.73861   0.03085
C          C       0.61122   0.27706   0.76910   0.03143
C          C       0.65790   0.36593   0.74111   0.03128
C          C       0.27745   0.65570   0.76643   0.03031
C          C       0.36680   0.70290   0.73841   0.03735
C          C       0.32123   0.61352   0.77117   0.03103
C          C       0.40845   0.65789   0.74401  -0.22685
C          C       0.32212   0.74234   0.75725  -0.21988
C          C       0.23063   0.56708   0.80857  -0.21819
C          C       0.57104   0.32291   0.76480  -0.22782
C          C       0.65459   0.23643   0.74655  -0.23057
C          C       0.74842   0.41078   0.70362  -0.22265
C          C       0.65769   0.40816   0.73740  -0.22512
C          C       0.74297   0.32285   0.74237  -0.21933
C          C       0.56649   0.23178   0.79435  -0.21512
C          C       0.32165   0.57130   0.77766  -0.22723
C          C       0.23522   0.65505   0.76075  -0.22825
C          C       0.41065   0.74834   0.71612  -0.22406
C          C       0.40754   0.61577   0.75275   0.14256
C          C       0.36434   0.78501   0.74499   0.13603
C          C       0.18898   0.56645   0.81051   0.13842
C          C       0.57284   0.36546   0.75417   0.13701
C          C       0.61116   0.19373   0.76427   0.14077
C          C       0.78959   0.41034   0.70188   0.14570
C          C       0.61607   0.40819   0.74326   0.14236
C          C       0.78578   0.36490   0.73084   0.13448
C          C       0.56604   0.19062   0.79352   0.14177
C          C       0.36407   0.57251   0.76656   0.14187
C          C       0.19232   0.61173   0.77813   0.14379
C          C       0.40967   0.78873   0.71876   0.14513
C          C       0.40444   0.53185   0.76369   0.14635
C          C       0.44912   0.86889   0.71902   0.14648
C          C       0.11307   0.57113   0.76875   0.14469
C          C       0.57559   0.44883   0.74406   0.14776
C          C       0.52435   0.11001   0.79583   0.14503
C          C       0.86484   0.40355   0.74337   0.14685
C          C       0.53271   0.40630   0.75208   0.14574
C          C       0.87040   0.45047   0.69971   0.14665
C          C       0.57032   0.11416   0.76088   0.14567
C          C       0.44773   0.57478   0.75249   0.14945
C          C       0.10814   0.52454   0.81240   0.14691
C          C       0.40272   0.86391   0.75510   0.14692
C          C       0.48969   0.57506   0.74769  -0.18329
C          C       0.39918   0.90152   0.77959  -0.18181
C          C       0.06590   0.48120   0.82501  -0.17753
C          C       0.49043   0.40542   0.75803  -0.18755
C          C       0.57330   0.07676   0.73325  -0.19230
C          C       0.91339   0.49357   0.68421  -0.18838
C          C       0.57576   0.49029   0.74304  -0.18132
C          C       0.90192   0.39977   0.77601  -0.18143
C          C       0.48128   0.06783   0.80752  -0.17878
C          C       0.40350   0.48984   0.76745  -0.18695
C          C       0.07628   0.57454   0.73271  -0.18784
C          C       0.49197   0.91196   0.70448  -0.18729
C          C       0.44597   0.49015   0.76020  -0.02682
C          C       0.48869   0.94991   0.72983  -0.04575
C          C       0.03411   0.53148   0.74175  -0.04252
C          C       0.53335   0.48986   0.74791  -0.02723
C          C       0.48389   0.02967   0.78047  -0.03679
C          C       0.94482   0.44269   0.76505  -0.03916
C          C       0.49045   0.44723   0.75551  -0.02673
C          C       0.95072   0.48998   0.71802  -0.04713
C          C       0.53031   0.03440   0.74337  -0.03877
C          C       0.48913   0.53290   0.75122  -0.02708
C          C       0.02844   0.48428   0.78960  -0.03358
C          C       0.44200   0.94469   0.76783  -0.03913
C          C       0.53391   0.53391   0.75184   0.34188
C          C       0.43738   0.98439   0.79506   0.33619
C          C       0.98305   0.43717   0.80666   0.33538
C          C       0.44510   0.44569   0.75812   0.34108
C          C       0.53498   0.99498   0.71588   0.32780
C          C       0.99577   0.53688   0.70217   0.32952
O          O       0.38057   0.54887   0.26793  -0.15425
O          O       0.47980   0.85587   0.16834  -0.14921
O          O       0.17795   0.64067   0.23976  -0.15346
O          O       0.63414   0.46671   0.24868  -0.15152
O          O       0.54703   0.17047   0.29437  -0.14907
O          O       0.84766   0.38671   0.23440  -0.15010
O          O       0.54826   0.38048   0.25802  -0.15622
O          O       0.85607   0.48078   0.15540  -0.14864
O          O       0.64161   0.18006   0.22235  -0.15611
O          O       0.46792   0.63432   0.25666  -0.15321
O          O       0.16840   0.54602   0.31677  -0.15086
O          O       0.38503   0.84512   0.25303  -0.15295
O          O       0.58824   0.58667   0.25569  -0.38248
O          O       0.42184   0.00058   0.32728  -0.37409
O          O       0.99869   0.42115   0.34732  -0.37581
O          O       0.42898   0.43068   0.23068  -0.38514
O          O       0.60166   0.02036   0.17475  -0.37730
O          O       0.02360   0.60508   0.14553  -0.37663
O          O       0.36223   0.53044   0.76647  -0.15553
O          O       0.45399   0.83192   0.69775  -0.15306
O          O       0.15346   0.61447   0.76128  -0.15187
O          O       0.61821   0.45074   0.73954  -0.15460
O          O       0.52020   0.14664   0.82419  -0.15132
O          O       0.82320   0.36023   0.75460  -0.15444
O          O       0.53137   0.36476   0.74996  -0.15219
O          O       0.83382   0.45558   0.67221  -0.15341
O          O       0.61368   0.15481   0.75176  -0.14851
O          O       0.45014   0.61740   0.74823  -0.15645
O          O       0.14434   0.52002   0.84696  -0.14893
O          O       0.35924   0.82190   0.76841  -0.15423
O          O       0.56891   0.56875   0.76392  -0.38071
O          O       0.39607   0.97937   0.83081  -0.37520
O          O       0.97682   0.39494   0.85706  -0.37366
O          O       0.40905   0.40973   0.75383  -0.37960
O          O       0.57578  -0.00084   0.68465  -0.37625
O          O       0.00082   0.57823   0.65940  -0.37336

