data_crystal

_audit_creation_method 'AiiDA-DDEC plugin'

_cell_length_a        25.04272
_cell_length_b        25.06848
_cell_length_c         7.94978

_cell_angle_alpha     81.13518
_cell_angle_beta     91.99400
_cell_angle_gamma     119.97570

_symmetry_space_group_name_Hall 'P 1'
_symmetry_space_group_name_H-M  'P 1'

loop_
_symmetry_equiv_pos_as_xyz
 'x,y,z'

loop_
_atom_site_label
_atom_site_type_symbol
_atom_site_fract_x
_atom_site_fract_y
_atom_site_fract_z
_atom_site_charge
H          H       0.48747   0.70442   0.26304   0.14694
H          H       0.29162   0.78346   0.23617   0.14807
H          H       0.21275   0.50807   0.23646   0.14960
H          H       0.50626   0.29230   0.24792   0.14790
H          H       0.70445   0.21477   0.22402   0.14979
H          H       0.77936   0.48675   0.28348   0.14872
H          H       0.70531   0.48811   0.25149   0.14679
H          H       0.78308   0.29336   0.21821   0.15020
H          H       0.50712   0.21585   0.23604   0.14774
H          H       0.29013   0.50857   0.23111   0.14870
H          H       0.21409   0.70619   0.25211   0.14847
H          H       0.48812   0.78104   0.27528   0.14777
H          H       0.49462   0.70720   0.76701   0.14693
H          H       0.29764   0.78549   0.78838   0.14930
H          H       0.22219   0.51339   0.73787   0.14616
H          H       0.51187   0.29614   0.74750   0.14820
H          H       0.70905   0.21839   0.72770   0.14937
H          H       0.78601   0.49008   0.77643   0.14838
H          H       0.71007   0.48944   0.80260   0.14879
H          H       0.78674   0.29573   0.72534   0.14808
H          H       0.51211   0.22124   0.71343   0.14715
H          H       0.29744   0.51360   0.71502   0.14940
H          H       0.21878   0.70786   0.76253   0.14876
H          H       0.49398   0.78255   0.77605   0.14788
C          C       0.33146   0.72244   0.25023   0.03519
C          C       0.27299   0.60805   0.24503   0.03530
C          C       0.38773   0.66412   0.25596   0.03488
C          C       0.66367   0.27446   0.23257   0.03437
C          C       0.72144   0.38800   0.25465   0.03277
C          C       0.60668   0.33147   0.25123   0.03537
C          C       0.72169   0.33212   0.23971   0.03301
C          C       0.60675   0.27403   0.24129   0.03270
C          C       0.66342   0.38790   0.25563   0.03314
C          C       0.27311   0.66475   0.24850   0.03314
C          C       0.38824   0.72225   0.25918   0.03440
C          C       0.33107   0.60790   0.24608   0.03260
C          C       0.44328   0.66245   0.25900  -0.22053
C          C       0.33303   0.77964   0.24608  -0.21882
C          C       0.21579   0.55234   0.24650  -0.22047
C          C       0.55123   0.33331   0.25362  -0.22165
C          C       0.66256   0.21763   0.22901  -0.21757
C          C       0.77775   0.44348   0.26864  -0.21699
C          C       0.66266   0.44386   0.25655  -0.21761
C          C       0.77913   0.33390   0.23416  -0.21879
C          C       0.55111   0.21739   0.23843  -0.21801
C          C       0.33232   0.55235   0.24004  -0.21835
C          C       0.21621   0.66384   0.25371  -0.21832
C          C       0.44382   0.77876   0.26671  -0.22082
C          C       0.44339   0.60806   0.24965   0.14135
C          C       0.38801   0.83376   0.25550   0.14211
C          C       0.16117   0.55293   0.25439   0.14365
C          C       0.55183   0.38828   0.26000   0.14112
C          C       0.60708   0.16259   0.23744   0.14333
C          C       0.83293   0.44418   0.26039   0.13860
C          C       0.60788   0.44414   0.26202   0.14053
C          C       0.83319   0.38877   0.24882   0.14282
C          C       0.55106   0.16256   0.23822   0.14051
C          C       0.38750   0.55235   0.24440   0.14221
C          C       0.16115   0.60875   0.25758   0.13784
C          C       0.44389   0.83369   0.26568   0.14199
C          C       0.44186   0.49842   0.24709   0.10165
C          C       0.49692   0.94158   0.26189   0.09627
C          C       0.05289   0.55512   0.26702   0.09974
C          C       0.55402   0.49840   0.25953   0.09831
C          C       0.49701   0.05444   0.24662   0.09824
C          C       0.94114   0.44355   0.26274   0.09921
C          C       0.49846   0.44293   0.25637   0.09767
C          C       0.94092   0.49879   0.26790   0.09765
C          C       0.55244   0.05393   0.24949   0.09531
C          C       0.49730   0.55394   0.24952   0.09644
C          C       0.05295   0.49962   0.26468   0.09702
C          C       0.44139   0.94201   0.25587   0.09996
C          C       0.55384   0.55453   0.25884  -0.09574
C          C       0.44039   0.99806   0.25510  -0.09406
C          C       0.99721   0.44315   0.26059  -0.09445
C          C       0.44160   0.44195   0.25103  -0.09585
C          C       0.55325   0.99772   0.26068  -0.09494
C          C       0.99675   0.55545   0.26787  -0.09449
C          C       0.60970   0.61091   0.26737   0.23872
C          C       0.38279   0.99639   0.26147   0.23780
C          C       0.99648   0.38664   0.24963   0.23596
C          C       0.38574   0.38571   0.23411   0.24134
C          C       0.61093  -0.00050   0.26927   0.23883
C          C       0.99404   0.61105   0.25824   0.24081
C          C       0.33756   0.72553   0.77018   0.03574
C          C       0.28006   0.61217   0.75083   0.03264
C          C       0.39506   0.66826   0.75876   0.03329
C          C       0.66882   0.27833   0.73127   0.03585
C          C       0.72749   0.39159   0.75383   0.03480
C          C       0.61279   0.33611   0.74868   0.03520
C          C       0.72714   0.33547   0.74003   0.03315
C          C       0.61202   0.27854   0.73127   0.03228
C          C       0.66967   0.39182   0.76384   0.03309
C          C       0.27967   0.66798   0.76378   0.03629
C          C       0.39437   0.72533   0.76989   0.03506
C          C       0.33834   0.61252   0.74684   0.03483
C          C       0.45035   0.66603   0.75863  -0.21801
C          C       0.33925   0.78230   0.77887  -0.21873
C          C       0.22322   0.55688   0.74296  -0.21825
C          C       0.55688   0.33696   0.75531  -0.22136
C          C       0.66742   0.22180   0.72427  -0.21757
C          C       0.78435   0.44679   0.76216  -0.21875
C          C       0.66828   0.44642   0.78347  -0.21527
C          C       0.78440   0.33717   0.73619  -0.21907
C          C       0.55614   0.22244   0.71624  -0.21753
C          C       0.33906   0.55747   0.72903  -0.21852
C          C       0.22242   0.66656   0.75998  -0.21972
C          C       0.45033   0.78171   0.77121  -0.21847
C          C       0.44998   0.61207   0.74081   0.14123
C          C       0.39492   0.83673   0.77750   0.14036
C          C       0.16794   0.55616   0.74657   0.14058
C          C       0.55707   0.39085   0.77221   0.14090
C          C       0.61236   0.16814   0.71141   0.14185
C          C       0.83947   0.44732   0.75118   0.14213
C          C       0.61275   0.44563   0.78731   0.14225
C          C       0.83949   0.39190   0.74078   0.13884
C          C       0.55610   0.16775   0.70855   0.14024
C          C       0.39408   0.55731   0.72967   0.14158
C          C       0.16772   0.61167   0.75318   0.14160
C          C       0.45081   0.83680   0.77325   0.14401
C          C       0.44801   0.50249   0.73659   0.09946
C          C       0.50394   0.94628   0.75012   0.09900
C          C       0.05969   0.55674   0.74185   0.09704
C          C       0.55831   0.49955   0.78100   0.09824
C          C       0.50301   0.05937   0.71732   0.09774
C          C       0.94787   0.44509   0.74258   0.09883
C          C       0.50283   0.44461   0.77157   0.09967
C          C       0.94748   0.50030   0.74713   0.09720
C          C       0.55876   0.05973   0.71238   0.09823
C          C       0.50334   0.55727   0.74547   0.09925
C          C       0.06017   0.50157   0.74105   0.10061
C          C       0.44832   0.94603   0.75633   0.09887
C          C       0.55916   0.55666   0.76430  -0.09261
C          C       0.44704   0.00224   0.73831  -0.09405
C          C       0.00429   0.44511   0.74006  -0.09533
C          C       0.44688   0.44514   0.74909  -0.09611
C          C       0.56022   0.00346   0.72901  -0.09328
C          C       0.00352   0.55672   0.74302  -0.09550
C          C       0.61483   0.61352   0.76735   0.24126
C          C       0.38954   0.00020   0.73971   0.23684
C          C       0.00495   0.38900   0.73904   0.23731
C          C       0.38944   0.39030   0.73884   0.23709
C          C       0.61786   0.00478   0.73908   0.23919
C          C       0.00431   0.61372   0.74036   0.24038
N          N       0.34147   0.33956   0.21251  -0.28386
N          N       0.65811   0.00078   0.28135  -0.28096
N          N       0.98755   0.65423   0.24811  -0.28125
N          N       0.65509   0.65725   0.28150  -0.28180
N          N       0.33496   0.99381   0.26858  -0.28040
N          N       0.99561   0.34007   0.23697  -0.28025
N          N       0.34029   0.34742   0.72806  -0.28137
N          N       0.66418   0.00455   0.75612  -0.28002
N          N       0.00442   0.66044   0.73646  -0.28403
N          N       0.65913   0.66169   0.76982  -0.28327
N          N       0.34167   0.99758   0.73422  -0.28069
N          N       0.00529   0.34250   0.73848  -0.28068
O          O       0.38592   0.49625   0.24012  -0.13339
O          O       0.50005   0.88799   0.26802  -0.13152
O          O       0.10682   0.61123   0.25745  -0.13292
O          O       0.61008   0.50051   0.26869  -0.13430
O          O       0.49455   0.10844   0.23477  -0.13153
O          O       0.88793   0.38714   0.25936  -0.13728
O          O       0.49552   0.38661   0.25885  -0.13419
O          O       0.88711   0.50108   0.26349  -0.13254
O          O       0.60850   0.10755   0.24798  -0.13666
O          O       0.49996   0.61033   0.24432  -0.13354
O          O       0.10639   0.49708   0.25488  -0.13381
O          O       0.38569   0.88793   0.25779  -0.13710
O          O       0.39294   0.50207   0.71526  -0.13836
O          O       0.50691   0.89208   0.76720  -0.13568
O          O       0.11273   0.61289   0.74862  -0.13626
O          O       0.61308   0.49988   0.81037  -0.13890
O          O       0.50011   0.11351   0.69557  -0.13465
O          O       0.89409   0.38968   0.73459  -0.13534
O          O       0.50035   0.38821   0.77940  -0.13545
O          O       0.89416   0.50333   0.75390  -0.13110
O          O       0.61457   0.11456   0.69939  -0.13769
O          O       0.50630   0.61393   0.73315  -0.13259
O          O       0.11396   0.49949   0.74218  -0.13152
O          O       0.39296   0.89104   0.78077  -0.13645

