data_crystal

_audit_creation_method 'AiiDA-DDEC plugin'

_cell_length_a        25.05621
_cell_length_b        25.08388
_cell_length_c         8.70698

_cell_angle_alpha     111.38086
_cell_angle_beta     104.38237
_cell_angle_gamma     120.20737

_symmetry_space_group_name_Hall 'P 1'
_symmetry_space_group_name_H-M  'P 1'

loop_
_symmetry_equiv_pos_as_xyz
 'x,y,z'

loop_
_atom_site_label
_atom_site_type_symbol
_atom_site_fract_x
_atom_site_fract_y
_atom_site_fract_z
_atom_site_charge
H          H       0.67921   0.65368   0.54696   0.37143
H          H       0.44171   0.09892   0.40676   0.34912
H          H       0.90216   0.31398   0.08984   0.36713
H          H       0.31753   0.39762   0.16556   0.36102
H          H       0.62939   0.97679   0.40839   0.38847
H          H       0.09930   0.68834   0.34694   0.37094
H          H       0.70695   0.49399   0.25324   0.14613
H          H       0.50760   0.21563   0.24175   0.14629
H          H       0.77642   0.28753   0.21227   0.13450
H          H       0.28828   0.50868   0.24291   0.14254
H          H       0.48673   0.77943   0.22695   0.14347
H          H       0.22530   0.71936   0.28852   0.14483
H          H       0.50527   0.28984   0.23180   0.14845
H          H       0.70424   0.21509   0.23126   0.14120
H          H       0.77891   0.48713   0.21882   0.14975
H          H       0.49113   0.70758   0.25483   0.14873
H          H       0.29941   0.79200   0.27203   0.14847
H          H       0.21842   0.51617   0.27392   0.14749
H          H       0.65596   0.56712   0.70277   0.35477
H          H       0.44073   0.09714   0.89408   0.34913
H          H       0.92270   0.30970   0.49286   0.37712
H          H       0.32374   0.39878   0.66740   0.36073
H          H       0.63389   0.98128   0.92194   0.38539
H          H       0.03539   0.67278   0.04049   0.35784
H          H       0.70715   0.48699   0.73206   0.14251
H          H       0.50992   0.21557   0.74842   0.14541
H          H       0.77694   0.28310   0.71010   0.13637
H          H       0.29463   0.51007   0.76116   0.14074
H          H       0.48561   0.77633   0.72343   0.14365
H          H       0.22643   0.71668   0.79936   0.14623
H          H       0.51213   0.29514   0.75553   0.14691
H          H       0.70269   0.20979   0.72520   0.14026
H          H       0.78123   0.48388   0.72048   0.14559
H          H       0.48498   0.69876   0.72072   0.14699
H          H       0.29911   0.78890   0.77620   0.14765
H          H       0.22079   0.51333   0.77638   0.14390
C          C       0.33677   0.72895   0.26210   0.03061
C          C       0.27746   0.61429   0.26412   0.03666
C          C       0.39012   0.66738   0.25144   0.03471
C          C       0.66269   0.27371   0.22891   0.03101
C          C       0.72056   0.38880   0.22825   0.03816
C          C       0.60636   0.33212   0.23338   0.02747
C          C       0.44551   0.66528   0.25211  -0.22691
C          C       0.33912   0.78655   0.26340  -0.21999
C          C       0.22233   0.56151   0.27577  -0.20246
C          C       0.55034   0.33275   0.23435  -0.22939
C          C       0.66232   0.21761   0.23253  -0.22285
C          C       0.77626   0.44283   0.22026  -0.20907
C          C       0.44371   0.60906   0.24976   0.15235
C          C       0.39170   0.83774   0.24917   0.14308
C          C       0.17209   0.56702   0.29555   0.15940
C          C       0.55094   0.38870   0.23987   0.15159
C          C       0.60957   0.16475   0.24340   0.14321
C          C       0.82868   0.43993   0.20797   0.16029
C          C       0.43963   0.49663   0.24474   0.11238
C          C       0.49842   0.94247   0.23307   0.12823
C          C       0.06135   0.56575   0.28194   0.11508
C          C       0.55314   0.50021   0.25696   0.10551
C          C       0.50055   0.05601   0.24567   0.10204
C          C       0.94077   0.44310   0.22550   0.10583
C          C       0.71963   0.33097   0.22375   0.02844
C          C       0.66394   0.39025   0.23711   0.02899
C          C       0.60621   0.27386   0.23158   0.03424
C          C       0.27990   0.67313   0.27073   0.03316
C          C       0.33261   0.61083   0.25149   0.03182
C          C       0.39114   0.72596   0.25169   0.03323
C          C       0.66389   0.44787   0.24732  -0.23079
C          C       0.55149   0.21758   0.23713  -0.23759
C          C       0.77505   0.33053   0.21586  -0.23046
C          C       0.33129   0.55288   0.24392  -0.22677
C          C       0.44501   0.78012   0.23965  -0.21671
C          C       0.22607   0.67588   0.28420  -0.22265
C          C       0.60845   0.44703   0.24843   0.14882
C          C       0.55365   0.16462   0.24461   0.13959
C          C       0.82817   0.38394   0.20785   0.14908
C          C       0.38562   0.55195   0.24226   0.14467
C          C       0.44490   0.83475   0.23737   0.14908
C          C       0.17372   0.62376   0.29704   0.14267
C          C       0.49608   0.44224   0.24927   0.15097
C          C       0.55637   0.05652   0.24455   0.12970
C          C       0.93869   0.49662   0.21709   0.15336
C          C       0.49690   0.55426   0.25263   0.12990
C          C       0.44321   0.94300   0.23652   0.12815
C          C       0.06307   0.51188   0.28989   0.14564
C          C       0.55588   0.55839   0.26716  -0.21364
C          C       0.44210   0.99831   0.23637  -0.22513
C          C       0.00212   0.44909   0.26190  -0.22404
C          C       0.43859   0.44030   0.24830  -0.22520
C          C       0.55585  -0.00090   0.23656  -0.22528
C          C      -0.00075   0.55890   0.24159  -0.21635
C          C       0.62034   0.62402   0.29073   0.61325
C          C       0.37634   0.99051   0.21211   0.60086
C          C       0.00617   0.39405   0.28248   0.58983
C          C       0.38267   0.38180   0.26193   0.59071
C          C       0.61147   0.99566   0.21239   0.63340
C          C       0.99248   0.61035   0.20858   0.58493
C          C       0.33649   0.72572   0.76282   0.03172
C          C       0.27929   0.61206   0.76882   0.03303
C          C       0.38928   0.66334   0.74407   0.03180
C          C       0.66326   0.27047   0.72811   0.03474
C          C       0.72119   0.38428   0.72319   0.03389
C          C       0.60895   0.33106   0.73745   0.02867
C          C       0.44233   0.65907   0.73084  -0.22128
C          C       0.33845   0.78326   0.76457  -0.22625
C          C       0.22453   0.55887   0.78029  -0.20228
C          C       0.55547   0.33501   0.74741  -0.22208
C          C       0.66185   0.21369   0.73013  -0.22526
C          C       0.77735   0.43851   0.71764  -0.19833
C          C       0.44124   0.60323   0.72832   0.15038
C          C       0.39049   0.83437   0.74863   0.14618
C          C       0.17360   0.56319   0.79870   0.15870
C          C       0.55714   0.39137   0.75117   0.16003
C          C       0.60921   0.16141   0.74242   0.14654
C          C       0.83011   0.43604   0.70800   0.15941
C          C       0.44490   0.49777   0.74388   0.11637
C          C       0.49742   0.93961   0.73360   0.12601
C          C       0.06513   0.56392   0.79710   0.11206
C          C       0.55673   0.50024   0.74622   0.12863
C          C       0.49970   0.05313   0.74573   0.10368
C          C       0.94140   0.43753   0.72517   0.10446
C          C       0.72029   0.32678   0.72083   0.02851
C          C       0.66521   0.38672   0.73236   0.03623
C          C       0.60788   0.27214   0.73501   0.03267
C          C       0.28073   0.67028   0.77470   0.02972
C          C       0.33421   0.60868   0.75382   0.03442
C          C       0.39015   0.72223   0.74789   0.03270
C          C       0.66536   0.44376   0.73623  -0.22665
C          C       0.55301   0.21625   0.74144  -0.23637
C          C       0.77553   0.32598   0.71274  -0.23076
C          C       0.33486   0.55227   0.75154  -0.22910
C          C       0.44374   0.77661   0.73614  -0.21737
C          C       0.22717   0.67280   0.79133  -0.22518
C          C       0.61207   0.44547   0.74479   0.15012
C          C       0.55398   0.16223   0.74580   0.13612
C          C       0.82897   0.37918   0.70439   0.14375
C          C       0.38755   0.55004   0.73951   0.14643
C          C       0.44374   0.83154   0.73632   0.14497
C          C       0.17487   0.62041   0.80415   0.14373
C          C       0.50378   0.44665   0.75792   0.16009
C          C       0.55523   0.05322   0.74383   0.12696
C          C       0.94275   0.49482   0.73315   0.11241
C          C       0.49769   0.55129   0.73129   0.15675
C          C       0.44203   0.93997   0.73647   0.13048
C          C       0.06419   0.50692   0.79085   0.12752
C          C       0.55561   0.55400   0.73255  -0.20369
C          C       0.44106   0.99551   0.73665  -0.22765
C          C       0.00198   0.44280   0.75443  -0.24903
C          C       0.44626   0.44424   0.75746  -0.20313
C          C       0.55464   0.99588   0.73621  -0.22189
C          C       0.00508   0.55918   0.77227  -0.22921
C          C       0.61066   0.61210   0.71757   0.58098
C          C       0.37560   0.98805   0.71415   0.59930
C          C       0.00318   0.38464   0.76286   0.60880
C          C       0.39008   0.38488   0.76948   0.58639
C          C       0.61000   0.99185   0.71091   0.63743
C          C       0.00485   0.61848   0.76460   0.61169
O          O       0.38221   0.49423   0.23790  -0.17621
O          O       0.49661   0.88472   0.21672  -0.16162
O          O       0.12306   0.62967   0.31959  -0.18074
O          O       0.61031   0.50401   0.25610  -0.15667
O          O       0.50034   0.11265   0.25770  -0.17582
O          O       0.88024   0.37979   0.19303  -0.19134
O          O       0.61458   0.63559   0.16572  -0.44956
O          O       0.31415   0.92984   0.09398  -0.40983
O          O       0.06210   0.41330   0.39836  -0.41560
O          O       0.39383   0.35004   0.32520  -0.44519
O          O       0.63031   0.01137   0.10642  -0.49977
O          O       0.93420   0.59173   0.11173  -0.41671
O          O       0.49425   0.38531   0.23991  -0.12220
O          O       0.61515   0.11457   0.25954  -0.14504
O          O       0.87869   0.49033   0.18598  -0.12669
O          O       0.50003   0.61095   0.25377  -0.13517
O          O       0.38824   0.88999   0.24093  -0.13770
O          O       0.12307   0.51820   0.32309  -0.13209
O          O       0.68505   0.66896   0.45856  -0.44532
O          O       0.38938   0.05458   0.32999  -0.44883
O          O       0.94312   0.31943   0.16443  -0.46783
O          O       0.31766   0.36568   0.20472  -0.46714
O          O       0.63927   0.97509   0.30200  -0.44678
O          O       0.05588   0.68117   0.28224  -0.47280
O          O       0.38716   0.49435   0.73970  -0.17533
O          O       0.49639   0.88254   0.71967  -0.15994
O          O       0.12509   0.62703   0.82876  -0.15475
O          O       0.61366   0.50224   0.74835  -0.16835
O          O       0.50007   0.11011   0.75742  -0.17761
O          O       0.88023   0.37380   0.68861  -0.17522
O          O       0.61254   0.66135   0.71660  -0.43082
O          O       0.31348   0.92692   0.60336  -0.41272
O          O       0.04796   0.40071   0.90735  -0.42067
O          O       0.40171   0.35354   0.83339  -0.43672
O          O       0.62540   0.00327   0.59610  -0.50287
O          O       0.98707   0.61315   0.61220  -0.43602
O          O       0.50469   0.39330   0.76576  -0.12346
O          O       0.61386   0.11047   0.75629  -0.14643
O          O       0.88281   0.48958   0.69807  -0.15069
O          O       0.49356   0.60113   0.71113  -0.12958
O          O       0.38699   0.88670   0.74055  -0.14117
O          O       0.12320   0.51141   0.81820  -0.14310
O          O       0.66135   0.60794   0.69680  -0.49394
O          O       0.38885   0.05295   0.82564  -0.45036
O          O       0.95034   0.31157   0.59922  -0.45138
O          O       0.32411   0.36668   0.70592  -0.46424
O          O       0.64102   0.97561   0.80926  -0.44887
O          O       0.02528   0.67699   0.93000  -0.43604

