data_crystal

_audit_creation_method 'AiiDA-DDEC plugin'

_cell_length_a        11.02217
_cell_length_b        11.01617
_cell_length_c         7.79849

_cell_angle_alpha     121.86480
_cell_angle_beta     116.56684
_cell_angle_gamma     60.02432

_symmetry_space_group_name_Hall 'P 1'
_symmetry_space_group_name_H-M  'P 1'

loop_
_symmetry_equiv_pos_as_xyz
 'x,y,z'

loop_
_atom_site_label
_atom_site_type_symbol
_atom_site_fract_x
_atom_site_fract_y
_atom_site_fract_z
_atom_site_charge
H          H       0.50747   0.21538   0.00166   0.12160
H          H       0.22697   0.47460   0.00460   0.29506
H          H       0.21594   0.84636   0.99450   0.11924
H          H       0.85296   0.50913   0.01284   0.12041
H          H       0.87310   0.22362  -0.00309   0.29676
H          H       0.47603   0.87560   0.01119   0.29853
H          H       0.48329   0.21085   0.50505   0.11883
H          H       0.20214   0.46940   0.50579   0.29628
H          H       0.19141   0.84074   0.49161   0.11909
H          H       0.82838   0.50318   0.51349   0.11748
H          H       0.84821   0.21704   0.49519   0.29412
H          H       0.45087   0.86706   0.50196   0.29358
C          C       0.47504   0.42646   0.00620  -0.23554
C          C       0.62667   0.37337   0.00787   0.35451
C          C       0.67580   0.47560   0.01070  -0.22498
C          C       0.57871   0.62769   0.01259   0.35888
C          C       0.42805   0.67509   0.00926  -0.23099
C          C       0.37377   0.57663   0.00619   0.35342
C          C       0.43112   0.32738   0.00295   0.14022
C          C       0.24253   0.27311   0.00046   0.52224
C          C       0.05620   0.24083  -0.00228   0.52804
C          C       0.27411   0.05554   0.00062   0.52804
C          C       0.32868   0.81455   0.00316   0.14663
C          C       0.81688   0.43146   0.00828   0.14933
C          C       0.45084   0.42090   0.50727  -0.23936
C          C       0.60216   0.36653   0.50624   0.35211
C          C       0.65143   0.46876   0.50952  -0.23071
C          C       0.55412   0.62034   0.50952   0.35789
C          C       0.40351   0.66838   0.50671  -0.23417
C          C       0.34942   0.57122   0.50688   0.35125
C          C       0.40680   0.32253   0.50526   0.13669
C          C       0.21792   0.26719   0.49964   0.52586
C          C       0.03205   0.23444   0.49754   0.53339
C          C       0.24934   0.04811   0.49503   0.53156
C          C       0.30405   0.80729   0.49789   0.15305
C          C       0.79272   0.42507   0.50863   0.15353
N          N       0.29448   0.36548   0.00332  -0.27693
N          N       0.10165   0.33380  -0.00135  -0.50454
N          N       0.33532   0.13542   0.00129  -0.50498
N          N       0.13579   0.10015  -0.00197  -0.49932
N          N       0.36667   0.91457   0.00625  -0.27647
N          N       0.91404   0.29246  -0.00019  -0.26672
N          N       0.26956   0.35993   0.50314  -0.28212
N          N       0.07739   0.32795   0.49956  -0.50690
N          N       0.31075   0.12875   0.49806  -0.51425
N          N       0.11140   0.09269   0.49420  -0.50448
N          N       0.34162   0.90588   0.49691  -0.27538
N          N       0.89021   0.28640   0.50135  -0.26730
O          O       0.62363   0.71243   0.01167  -0.42850
O          O       0.24309   0.62063   0.00282  -0.43285
O          O       0.71137   0.24331   0.00860  -0.42952
O          O       0.59914   0.70420   0.50652  -0.43421
O          O       0.21888   0.61597   0.50488  -0.43513
O          O       0.68635   0.23515   0.50253  -0.43230

