data_crystal

_audit_creation_method 'AiiDA-DDEC plugin'

_cell_length_a        44.08068
_cell_length_b        43.53677
_cell_length_c         8.83673

_cell_angle_alpha     101.79295
_cell_angle_beta     64.08753
_cell_angle_gamma     122.09818

_symmetry_space_group_name_Hall 'P 1'
_symmetry_space_group_name_H-M  'P 1'

loop_
_symmetry_equiv_pos_as_xyz
 'x,y,z'

loop_
_atom_site_label
_atom_site_type_symbol
_atom_site_fract_x
_atom_site_fract_y
_atom_site_fract_z
_atom_site_charge
B          B       0.62466   0.42862   0.10750   0.58526
B          B       0.55651   0.18678   0.42266   0.59428
B          B       0.82629   0.39313   0.14868   0.59390
B          B       0.39191   0.57896   0.35817   0.58568
B          B       0.43723   0.82212   0.20742   0.59182
B          B       0.17755   0.60528   0.39249   0.57927
B          B       0.61942   0.42385   0.62342   0.58199
B          B       0.54872   0.17938   0.92662   0.59278
B          B       0.81910   0.38608   0.66159   0.59185
B          B       0.38648   0.57037   0.82438   0.58043
B          B       0.43731   0.81571   0.63288   0.59821
B          B       0.17579   0.59939   0.85473   0.58572
H          H       0.41563   0.68450   0.40493   0.13532
H          H       0.52229   0.87656   0.11350   0.13105
H          H       0.06213   0.58871   0.37411   0.14398
H          H       0.26999   0.70208   0.42612   0.13804
H          H       0.32416   0.74143   0.30351   0.13892
H          H       0.12461   0.63216   0.44313   0.13517
H          H       0.42234   0.48323   0.20403   0.14679
H          H       0.30091   0.57518   0.32020   0.13497
H          H       0.44082   0.93004   0.97847   0.07712
H          H       0.42845   0.96419   0.01831   0.09558
H          H       0.38540   0.90924   0.30055   0.05289
H          H       0.36637   0.95067   0.14870   0.08525
H          H       0.37246   0.95896   0.33793   0.09579
H          H       0.31025   0.89720   0.45393   0.07404
H          H       0.30488   0.89235   0.26378   0.07932
H          H       0.30350   0.95141   0.31453   0.07913
H          H       0.30420   0.95256   0.51253   0.07635
H          H       0.24125   0.89101   0.59243   0.11071
H          H       0.24078   0.89105   0.39325   0.10941
H          H       0.23457   0.92362   0.54078   0.11407
H          H       0.25886   0.57960   0.33423   0.13722
H          H       0.37571   0.50634   0.23181   0.13400
H          H       0.54506   0.94521   0.07893   0.14573
H          H       0.43087   0.73100   0.31316   0.13789
H          H       0.10120   0.50322   0.06779   0.05889
H          H       0.06735   0.46033   0.02370   0.10204
H          H       0.09375   0.47192   0.30481   0.04607
H          H       0.04253   0.40561   0.15483   0.09162
H          H       0.02847   0.41872   0.36262   0.09622
H          H       0.07499   0.40626   0.40141   0.07244
H          H       0.08754   0.39206   0.19415   0.07433
H          H       0.01672   0.34325   0.26742   0.08198
H          H       0.00558   0.35743   0.47565   0.09036
H          H       0.05322   0.34365   0.49817   0.11348
H          H       0.06263   0.32817   0.29004   0.10872
H          H       0.01564   0.30444   0.45145   0.11450
H          H       0.58767   0.32235   0.17514   0.13674
H          H       0.48222   0.13390   0.38301   0.13314
H          H       0.93955   0.41088   0.19372   0.14511
H          H       0.71793   0.30282   0.31352   0.13849
H          H       0.52921   0.43009   0.91022   0.06010
H          H       0.48420   0.42132   0.92290   0.10334
H          H       0.48947   0.38819   0.17744   0.05463
H          H       0.42449   0.37224   0.07818   0.08787
H          H       0.42969   0.39053   0.26643   0.09474
H          H       0.41889   0.33141   0.34318   0.07480
H          H       0.41165   0.31312   0.15805   0.07706
H          H       0.35545   0.32289   0.25223   0.07827
H          H       0.36345   0.34359   0.43307   0.08398
H          H       0.34807   0.28575   0.53943   0.11297
H          H       0.34324   0.26431   0.35162   0.11204
H          H       0.30918   0.27753   0.49343   0.11453
H          H       0.66370   0.26672   0.40787   0.13783
H          H       0.87197   0.36355   0.17155   0.13378
H          H       0.59308   0.52267   0.26063   0.14638
H          H       0.71273   0.43180   0.16953   0.13726
H          H       0.59804   0.10350   0.11273   0.07749
H          H       0.61497   0.07280   0.01400   0.09962
H          H       0.61109   0.09452   0.36315   0.04693
H          H       0.65748   0.06851   0.05805   0.08731
H          H       0.62924   0.05005   0.26154   0.09502
H          H       0.68218   0.10470   0.35287   0.08174
H          H       0.71047   0.11851   0.14057   0.07877
H          H       0.70755   0.05762   0.07882   0.07930
H          H       0.68069   0.04561   0.29372   0.08257
H          H       0.73699   0.09825   0.36032   0.11250
H          H       0.76401   0.11153   0.14409   0.11238
H          H       0.75266   0.06996   0.21457   0.11632
H          H       0.75595   0.42182   0.10295   0.13525
H          H       0.64278   0.50158   0.21706   0.13617
H          H       0.47100   0.06834   0.29161   0.14364
H          H       0.57155   0.27743   0.26363   0.13575
H          H       0.94138   0.52208   0.09567   0.08292
H          H       0.98080   0.56346   0.11256   0.10294
H          H       0.93875   0.55891   0.43034   0.06462
H          H       0.92622   0.57613   0.15295   0.08164
H          H       0.96174   0.60380   0.23479   0.09300
H          H       0.92537   0.63757   0.20433   0.07488
H          H       0.95068   0.65439   0.33655   0.08052
H          H       0.89243   0.65473   0.57753   0.11588
H          H       0.86567   0.63612   0.44877   0.11529
H          H       0.90660   0.68026   0.40229   0.11469
H          H       0.53589   0.58721   0.52449   0.10325
H          H       0.49284   0.58288   0.53461   0.06052
H          H       0.53443   0.61812   0.24876   0.05264
H          H       0.59028   0.60589   0.18684   0.09808
H          H       0.60190   0.63714   0.33937   0.08859
H          H       0.60585   0.68152   0.14774   0.07324
H          H       0.60859   0.64926   0.99539   0.08049
H          H       0.67458   0.69598   0.94593   0.07392
H          H       0.66731   0.65898   0.03551   0.08584
H          H       0.70246   0.71656   0.16662   0.11459
H          H       0.65601   0.68866   0.32034   0.11290
H          H       0.66443   0.72586   0.22425   0.11081
H          H       0.87546   0.58138   0.39645   0.07827
H          H       0.90293   0.59810   0.51960   0.07997
H          H       0.56555   0.67840   0.37624   0.08450
H          H       0.55595   0.65586   0.54777   0.08391
H          H       0.49309   0.64905   0.45092   0.11801
H          H       0.50673   0.67475   0.61613   0.12241
H          H       0.48280   0.62706   0.62872   0.09232
H          H       0.88956   0.49463   0.42877   0.05820
H          H       0.87428   0.50538   0.30602   0.07322
H          H       0.83116   0.49290   0.62354   0.11991
H          H       0.84184   0.53280   0.54110   0.11288
H          H       0.86685   0.53583   0.65938   0.11732
H          H       0.32665   0.82477   0.12834   0.12090
H          H       0.31394   0.84958   0.30671   0.11486
H          H       0.35220   0.84134   0.26195   0.11318
H          H       0.39208   0.87923  -0.00259   0.05601
H          H       0.35487   0.88683   0.02541   0.08178
H          H       0.13702   0.47929   0.96074   0.07841
H          H       0.11827   0.43361  -0.00352   0.07955
H          H       0.16469   0.49587   0.18380   0.11442
H          H       0.18415   0.47355   0.01220   0.11551
H          H       0.14864   0.44956   0.20597   0.11839
H          H       0.67547   0.14896   0.26703   0.08819
H          H       0.63789   0.15170   0.26096   0.06730
H          H       0.70167   0.14382   0.94877   0.12017
H          H       0.69890   0.18381   0.01214   0.11896
H          H       0.66329   0.14666   0.94742   0.11969
H          H       0.51597   0.37555   0.83957   0.06348
H          H       0.46655   0.34337   0.89911   0.07788
H          H       0.52133   0.34962   0.04743   0.11295
H          H       0.50247   0.31603   0.91185   0.11732
H          H       0.47096   0.31724   0.12113   0.11522
H          H       0.41448   0.67772   0.85095   0.13949
H          H       0.52062   0.87408   0.55531   0.12970
H          H       0.05385   0.57812   0.89085   0.14380
H          H       0.27224   0.69725   0.85729   0.14075
H          H       0.32617   0.73270   0.70659   0.13325
H          H       0.11769   0.62324   0.94497   0.13824
H          H       0.41294   0.47246   0.71514   0.14785
H          H       0.30013   0.56918   0.75942   0.13683
H          H       0.42132   0.91642   0.51066   0.06703
H          H       0.42015   0.95541   0.49695   0.09262
H          H       0.37168   0.92049   0.83865   0.06294
H          H       0.33669   0.92881   0.63412   0.08149
H          H       0.37484   0.96893   0.66877   0.09551
H          H       0.34057   0.96076   0.97117   0.08515
H          H       0.30395   0.91671   0.95934   0.07539
H          H       0.28591   0.94263   0.79882   0.07392
H          H       0.31949   0.98631   0.83283   0.08345
H          H       0.28137   0.97499   0.14902   0.11450
H          H       0.24857   0.93008   0.11617   0.11327
H          H       0.25060   0.96712   0.04992   0.11252
H          H       0.25734   0.57343   0.78242   0.13720
H          H       0.36455   0.49343   0.74177   0.13625
H          H       0.53738   0.94212   0.55637   0.14546
H          H       0.43091   0.72604   0.75664   0.13805
H          H       0.09407   0.49337   0.55523   0.05545
H          H       0.05939   0.44861   0.53157   0.10578
H          H       0.09098   0.46818   0.80195   0.04511
H          H       0.03910   0.39813   0.67276   0.09081
H          H       0.02849   0.41285   0.87927   0.10098
H          H       0.08058   0.40445   0.89049   0.07411
H          H       0.08891   0.38821   0.68647   0.07610
H          H       0.01797   0.33826   0.78917   0.08125
H          H       0.01136   0.35413   0.99340   0.08441
H          H       0.06305   0.34279   0.98801   0.11346
H          H       0.06887   0.32629   0.78281   0.11091
H          H       0.02421   0.30240   0.95561   0.11398
H          H       0.58280   0.31645   0.67686   0.13500
H          H       0.47331   0.12780   0.89282   0.13339
H          H       0.93563   0.40315   0.67172   0.14450
H          H       0.71197   0.29412   0.80655   0.13751
H          H       0.52778   0.42503   0.40220   0.05653
H          H       0.48281   0.41553   0.41117   0.10387
H          H       0.48835   0.38595   0.67696   0.05405
H          H       0.42209   0.36875   0.58327   0.08966
H          H       0.42939   0.38916   0.76599   0.09446
H          H       0.41844   0.33058   0.85252   0.07506
H          H       0.40884   0.31053   0.67306   0.07923
H          H       0.35415   0.32474   0.77525   0.07820
H          H       0.36285   0.34184   0.95842   0.08327
H          H       0.34731   0.28047   0.03264   0.11524
H          H       0.33989   0.26322   0.84441   0.11087
H          H       0.30762   0.27620   0.00642   0.11585
H          H       0.65652   0.25825   0.91049   0.13664
H          H       0.86752   0.35615   0.65369   0.13215
H          H       0.59011   0.51971   0.75364   0.14779
H          H       0.70357   0.42565   0.71293   0.13947
H          H       0.58260   0.09231   0.61864   0.06511
H          H       0.59984   0.06173   0.52220   0.09847
H          H       0.60766   0.09536   0.84766   0.04787
H          H       0.64561   0.06016   0.54966   0.08739
H          H       0.61597   0.04325   0.75573   0.09605
H          H       0.67089   0.09506   0.84411   0.07354
H          H       0.70028   0.10691   0.63191   0.07651
H          H       0.68948   0.04300   0.58147   0.08289
H          H       0.66309   0.03344   0.79921   0.08892
H          H       0.72278   0.08377   0.85157   0.11339
H          H       0.74899   0.09443   0.63325   0.11012
H          H       0.73438   0.05246   0.71310   0.11669
H          H       0.74712   0.41644   0.64807   0.13741
H          H       0.63750   0.49771   0.73094   0.13557
H          H       0.45917   0.06099   0.80997   0.14381
H          H       0.56409   0.27157   0.78065   0.13661
H          H       0.93608   0.51523   0.59942   0.08614
H          H       0.97763   0.55583   0.60716   0.09964
H          H       0.93721   0.55242   0.92992   0.06511
H          H       0.93147   0.57555   0.64623   0.07898
H          H       0.96499   0.59995   0.74040   0.09692
H          H       0.93126   0.63570   0.68297   0.07716
H          H       0.95839   0.65274   0.80763   0.08157
H          H       0.90319   0.65804   0.05107   0.11486
H          H       0.87544   0.64041   0.92623   0.11347
H          H       0.91890   0.68308   0.87083   0.11473
H          H       0.52407   0.58074   0.03013   0.09370
H          H       0.48196   0.57467   0.02240   0.07225
H          H       0.52600   0.61401   0.75087   0.05082
H          H       0.58144   0.60609   0.63712   0.09556
H          H       0.58588   0.61281   0.82876   0.09335
H          H       0.61072   0.67946   0.80629   0.07617
H          H       0.60856   0.67382   0.60843   0.06985
H          H       0.65723   0.65305   0.49591   0.08246
H          H       0.65458   0.65179   0.69809   0.08429
H          H       0.68458   0.72196   0.51546   0.11426
H          H       0.71465   0.70928   0.53719   0.11475
H          H       0.68252   0.71931   0.71735   0.10948
H          H       0.88006   0.58202   0.88490   0.07785
H          H       0.90696   0.59908   0.01093   0.08157
H          H       0.55633   0.67241   0.88736   0.08862
H          H       0.54277   0.64820   0.06272   0.08214
H          H       0.47113   0.62022   0.11358   0.09273
H          H       0.48621   0.64380   0.93039   0.11688
H          H       0.49528   0.66790   0.10747   0.12308
H          H       0.88369   0.49024   0.92450   0.05635
H          H       0.87113   0.50579   0.80677   0.07564
H          H       0.82827   0.49367   0.12454   0.11822
H          H       0.84484   0.53685   0.05055   0.11224
H          H       0.86738   0.53257   0.16211   0.11703
H          H       0.29227   0.83077   0.73760   0.11714
H          H       0.28994   0.87100   0.77657   0.12066
H          H       0.30053   0.85679   0.91218   0.11561
H          H       0.36350   0.86560   0.67117   0.06717
H          H       0.35288   0.87966   0.53747   0.07789
H          H       0.13340   0.47502   0.46040   0.07606
H          H       0.11779   0.43011   0.49574   0.08151
H          H       0.16230   0.49567   0.67828   0.11278
H          H       0.18306   0.47339   0.51163   0.11656
H          H       0.14871   0.45040   0.70887   0.11727
H          H       0.63058   0.14561   0.69727   0.06991
H          H       0.64535   0.12792   0.50150   0.07556
H          H       0.69524   0.16007   0.71056   0.11700
H          H       0.69937   0.18301   0.55335   0.11575
H          H       0.70835   0.14649   0.50003   0.11411
H          H       0.51292   0.36942   0.34497   0.07100
H          H       0.46308   0.33810   0.40739   0.08026
H          H       0.51671   0.34470   0.56365   0.11501
H          H       0.49791   0.31028   0.43020   0.11693
H          H       0.46614   0.31288   0.63622   0.11534
C          C       0.53087   0.47644   0.16525   0.16193
C          C       0.56262   0.47256   0.14610  -0.04372
C          C       0.52376   0.50471   0.24495  -0.19221
C          C       0.47493   0.46619   0.14623   0.43219
C          C       0.59242   0.49786   0.20077  -0.12665
C          C       0.61865   0.48660   0.17683  -0.06861
C          C       0.60928   0.45251   0.10706  -0.33757
C          C       0.65913   0.41043   0.14441   0.17112
C          C       0.62465   0.37973   0.14150   0.17766
C          C       0.61491   0.34552   0.17476  -0.22309
C          C       0.68639   0.40754   0.16715  -0.22984
C          C       0.67807   0.37244   0.19498   0.02917
C          C       0.64118   0.34155   0.20913   0.02846
C          C       0.52839   0.05318   0.25583   0.15262
C          C       0.52413   0.08415   0.32099  -0.05352
C          C       0.50053   0.01988   0.22223  -0.19483
C          C       0.55473   0.01490   0.16148   0.42826
C          C       0.49465   0.08928   0.32828  -0.12746
C          C       0.50058   0.12402   0.37934  -0.06238
C          C       0.53359   0.14573   0.41685  -0.32302
C          C       0.58266   0.24412   0.35333   0.17122
C          C       0.60844   0.24113   0.39348   0.17687
C          C       0.64483   0.26999   0.37305  -0.23234
C          C       0.59236   0.27618   0.29288  -0.23315
C          C       0.63004   0.30658   0.26724   0.02635
C          C       0.65664   0.30324   0.30454   0.03209
C          C       0.42798   0.94425   0.07913  -0.09947
C          C       0.38511   0.91756   0.19204   0.00381
C          C       0.36094   0.93692   0.25710  -0.19400
C          C       0.29495   0.93399   0.41664  -0.10969
C          C       0.25054   0.90872   0.49000  -0.37305
C          C       0.36815   0.88291   0.09468  -0.14203
C          C       0.96249   0.48464   0.20274   0.15108
C          C       0.93080   0.45408   0.16705  -0.05312
C          C       0.99101   0.48347   0.22931  -0.21327
C          C       0.00312   0.54270   0.27251   0.42263
C          C       0.92089   0.41778   0.17594  -0.11763
C          C       0.88520   0.39283   0.16184  -0.06446
C          C       0.86752   0.40907   0.13696  -0.31590
C          C       0.76274   0.35681   0.22173   0.17616
C          C       0.77329   0.38993   0.16163   0.17026
C          C       0.74654   0.39608   0.15361  -0.23172
C          C       0.72500   0.32850   0.27289  -0.22688
C          C       0.69651   0.33341   0.26364   0.02692
C          C       0.70719   0.36754   0.20664   0.03084
C          C       0.07574   0.47692   0.12478  -0.11184
C          C       0.08693   0.45713   0.19780  -0.00142
C          C       0.05329   0.41807   0.25552  -0.20415
C          C       0.06364   0.39393   0.30248  -0.14828
C          C       0.02896   0.35562   0.36376  -0.11330
C          C       0.04060   0.33161   0.40301  -0.37629
C          C       0.12517   0.45954   0.05917  -0.13350
C          C       0.48440   0.52872   0.30431   0.15704
C          C       0.45388   0.53361   0.31494  -0.03816
C          C       0.49014   0.49930   0.23382  -0.18906
C          C       0.53945   0.53818   0.32898   0.42394
C          C       0.42428   0.50875   0.25840  -0.12653
C          C       0.39960   0.52123   0.27352  -0.06976
C          C       0.40946   0.55564   0.34069  -0.33054
C          C       0.35442   0.59683   0.34590   0.17506
C          C       0.38622   0.62729   0.37216   0.17642
C          C       0.39122   0.66141   0.38083  -0.22419
C          C       0.32542   0.59934   0.33777  -0.22827
C          C       0.32894   0.63398   0.35036   0.02905
C          C       0.36305   0.66541   0.36305   0.02993
C          C       0.49931   0.42260  -0.00258  -0.11061
C          C       0.47844   0.38504   0.08215  -0.00413
C          C       0.43442   0.37117   0.17070  -0.19046
C          C       0.40886   0.33316   0.25293  -0.15156
C          C       0.36587   0.32257   0.34417  -0.10837
C          C       0.34015   0.28557   0.43710  -0.37665
C          C       0.48938   0.35940   0.94853  -0.13514
C          C       0.48670   0.96191   0.14160   0.15686
C          C       0.48548   0.92786   0.12381  -0.04468
C          C       0.51514   0.99555   0.17107  -0.19162
C          C       0.46274   0.00198   0.21218   0.42741
C          C       0.51570   0.92257   0.10318  -0.12321
C          C       0.50325   0.88596   0.12279  -0.05619
C          C       0.46370   0.86237   0.15801  -0.33157
C          C       0.41314   0.76531   0.28060   0.17464
C          C       0.38328   0.76832   0.27887   0.18256
C          C       0.34648   0.73891   0.31213  -0.23365
C          C       0.40719   0.73263   0.31394  -0.23069
C          C       0.36979   0.70139   0.34561   0.02681
C          C       0.33925   0.70473   0.34675   0.02565
C          C       0.60184   0.08228   0.13628  -0.09603
C          C       0.62953   0.09795   0.22867  -0.00914
C          C       0.65046   0.07615   0.19031  -0.19445
C          C       0.68750   0.09448   0.22505  -0.16481
C          C       0.70312   0.06901   0.20477  -0.10818
C          C       0.74120   0.08809   0.23217  -0.37594
C          C       0.65644   0.13946   0.19888  -0.14184
C          C       0.04772   0.51817   0.27326   0.16074
C          C       0.07888   0.54730   0.31591  -0.04434
C          C       0.01613   0.51833   0.27163  -0.19625
C          C       0.00717   0.46031   0.20248   0.43387
C          C       0.08297   0.58157   0.36670  -0.11821
C          C       0.11635   0.60455   0.40174  -0.05380
C          C       0.13852   0.58878   0.37919  -0.32183
C          C       0.23519   0.64536   0.40038   0.17771
C          C       0.23239   0.61122   0.37212   0.18012
C          C       0.26240   0.60654   0.35216  -0.22552
C          C       0.26880   0.67609   0.40220  -0.23152
C          C       0.30122   0.67260   0.37157   0.03022
C          C       0.29740   0.63756   0.35580   0.02742
C          C       0.95480   0.53874   0.18388  -0.10026
C          C       0.92692   0.54933   0.33278   0.00149
C          C       0.93093   0.58247   0.27035  -0.18690
C          C       0.92137   0.63713   0.33598  -0.11068
C          C       0.89519   0.65294   0.44689  -0.38007
C          C       0.88586   0.51598   0.40458  -0.14793
C          C       0.52122   0.58598   0.44819  -0.11306
C          C       0.54661   0.62147   0.34022   0.00213
C          C       0.58933   0.63030   0.24524  -0.19126
C          C       0.61452   0.66075   0.10877  -0.15615
C          C       0.65858   0.67954   0.06313  -0.10276
C          C       0.67104   0.70392   0.20077  -0.37628
C          C       0.54468   0.65311   0.45360  -0.13363
C          C       0.31677   0.91271   0.34916  -0.15704
C          C       0.90534   0.59831   0.39053  -0.15050
C          C       0.50473   0.65071   0.54153  -0.38416
C          C       0.85493   0.51986   0.56548  -0.36834
C          C       0.33855   0.84783   0.20443  -0.37832
C          C       0.15726   0.47009   0.11881  -0.37156
C          C       0.68147   0.15409   0.01720  -0.36707
C          C       0.49627   0.33418   0.01122  -0.37104
C          C       0.52868   0.47322   0.65132   0.16079
C          C       0.56022   0.46953   0.63776  -0.04068
C          C       0.52027   0.50088   0.72966  -0.19450
C          C       0.47209   0.46056   0.62884   0.42791
C          C       0.58928   0.49465   0.69688  -0.12760
C          C       0.61428   0.48275   0.68482  -0.07009
C          C       0.60497   0.44836   0.61786  -0.33585
C          C       0.65179   0.40474   0.67305   0.17277
C          C       0.61841   0.37431   0.65877   0.18407
C          C       0.60878   0.33978   0.68714  -0.22750
C          C       0.67805   0.40152   0.70281  -0.23337
C          C       0.67013   0.36617   0.72300   0.03162
C          C       0.63410   0.33532   0.72689   0.03143
C          C       0.51564   0.04400   0.77286   0.15742
C          C       0.51245   0.07563   0.83448  -0.04850
C          C       0.48836   0.01124   0.73346  -0.18977
C          C       0.54242   0.00593   0.67081   0.43171
C          C       0.48367   0.08183   0.84166  -0.12060
C          C       0.49109   0.11715   0.88840  -0.06254
C          C       0.52475   0.13837   0.92175  -0.32691
C          C       0.57522   0.23719   0.86273   0.17203
C          C       0.60139   0.23329   0.89539   0.17413
C          C       0.63776   0.26193   0.87661  -0.22962
C          C       0.58501   0.26972   0.80619  -0.23468
C          C       0.62291   0.29985   0.77991   0.02576
C          C       0.64951   0.29578   0.81382   0.02753
C          C       0.41491   0.93717   0.58603  -0.09115
C          C       0.37164   0.91986   0.71379   0.01175
C          C       0.35219   0.94125   0.71886  -0.20352
C          C       0.29977   0.95849   0.88755  -0.10213
C          C       0.26844   0.95771   0.05960  -0.37643
C          C       0.34935   0.87990   0.66895  -0.14385
C          C       0.95722   0.47661   0.70030   0.14829
C          C       0.92511   0.44646   0.66552  -0.04788
C          C       0.98549   0.47489   0.72681  -0.20999
C          C       0.99860   0.53432   0.76940   0.41659
C          C       0.91618   0.41018   0.66219  -0.12519
C          C       0.88006   0.38544   0.65139  -0.06214
C          C       0.86080   0.40185   0.64296  -0.31818
C          C       0.75572   0.34904   0.73015   0.17587
C          C       0.76545   0.38322   0.68588   0.17825
C          C       0.73819   0.38983   0.68707  -0.23707
C          C       0.71818   0.32037   0.77696  -0.22582
C          C       0.68919   0.32593   0.77699   0.02640
C          C       0.69919   0.36086   0.73285   0.02983
C          C       0.06961   0.46768   0.62336  -0.10771
C          C       0.08397   0.45157   0.69838  -0.00209
C          C       0.05231   0.41232   0.76497  -0.20349
C          C       0.06634   0.39032   0.80189  -0.15265
C          C       0.03324   0.35209   0.87444  -0.11152
C          C       0.04800   0.32961   0.90178  -0.37612
C          C       0.12303   0.45587   0.55869  -0.13578
C          C       0.47839   0.52212   0.79126   0.15961
C          C       0.44679   0.52542   0.80261  -0.04023
C          C       0.48592   0.49372   0.71887  -0.18992
C          C       0.53437   0.53419   0.81765   0.43315
C          C       0.41554   0.49865   0.75922  -0.12676
C          C       0.39015   0.51006   0.77169  -0.06373
C          C       0.40155   0.54584   0.82193  -0.33552
C          C       0.35178   0.58993   0.79841   0.17209
C          C       0.38358   0.62001   0.82615   0.18181
C          C       0.38973   0.65460   0.82912  -0.22612
C          C       0.32417   0.59312   0.78126  -0.23216
C          C       0.32844   0.62793   0.79092   0.02959
C          C       0.36246   0.65924   0.80614   0.03003
C          C       0.49787   0.41793   0.48813  -0.11365
C          C       0.47663   0.38147   0.58246  -0.00505
C          C       0.43290   0.36872   0.67456  -0.19227
C          C       0.40731   0.33151   0.76460  -0.15463
C          C       0.36461   0.32184   0.86122  -0.10888
C          C       0.33834   0.28341   0.94070  -0.37945
C          C       0.48615   0.35430   0.45562  -0.13524
C          C       0.47585   0.95442   0.63407   0.15229
C          C       0.47719   0.92139   0.59896  -0.04430
C          C       0.50328   0.98715   0.67546  -0.19843
C          C       0.45089   0.99388   0.72110   0.42625
C          C       0.50924   0.91825   0.57098  -0.12574
C          C       0.50001   0.88205   0.57156  -0.05811
C          C       0.46138   0.85658   0.59849  -0.31976
C          C       0.41347   0.75922   0.71033   0.16975
C          C       0.38421   0.76135   0.69734   0.18075
C          C       0.34784   0.73174   0.72875  -0.23064
C          C       0.40733   0.72699   0.75194  -0.23636
C          C       0.37002   0.69543   0.78347   0.03082
C          C       0.34010   0.69841   0.77567   0.02931
C          C       0.58813   0.07252   0.64325  -0.10327
C          C       0.62062   0.09229   0.71187  -0.00404
C          C       0.63911   0.06867   0.68084  -0.18844
C          C       0.67535   0.08393   0.71808  -0.16517
C          C       0.68678   0.05551   0.70477  -0.11083
C          C       0.72519   0.07224   0.72669  -0.37939
C          C       0.64636   0.13100   0.62558  -0.13715
C          C       0.04225   0.50924   0.77100   0.15975
C          C       0.07403   0.53896   0.80808  -0.04922
C          C       0.01068   0.50952   0.77050  -0.19911
C          C       0.00117   0.45156   0.70258   0.43374
C          C       0.07653   0.57229   0.86932  -0.11778
C          C       0.11089   0.59637   0.89530  -0.05520
C          C       0.13548   0.58229   0.85434  -0.32469
C          C       0.23521   0.63997   0.84249   0.17726
C          C       0.23183   0.60560   0.81776   0.17280
C          C       0.26167   0.60060   0.79592  -0.22681
C          C       0.26964   0.67066   0.83559  -0.22839
C          C       0.30175   0.66667   0.80394   0.02981
C          C       0.29720   0.63153   0.79383   0.02927
C          C       0.95109   0.53190   0.68249  -0.09868
C          C       0.92563   0.54491   0.83225  -0.00023
C          C       0.93394   0.58023   0.76842  -0.18661
C          C       0.92843   0.63670   0.81380  -0.11046
C          C       0.90530   0.65563   0.92104  -0.37871
C          C       0.88300   0.51386   0.90386  -0.14756
C          C       0.51145   0.57941   0.94422  -0.10362
C          C       0.53743   0.61589   0.84274   0.00006
C          C       0.57977   0.62309   0.74817  -0.20622
C          C       0.61229   0.66251   0.69549  -0.16245
C          C       0.65301   0.66655   0.61694  -0.10890
C          C       0.68552   0.70636   0.59496  -0.38039
C          C       0.53434   0.64665   0.95996  -0.13195
C          C       0.32381   0.94348   0.89438  -0.15721
C          C       0.90991   0.59812   0.88005  -0.15364
C          C       0.49459   0.64434   0.03152  -0.38512
C          C       0.85447   0.51980   0.06854  -0.36776
C          C       0.30573   0.85860   0.78007  -0.36892
C          C       0.15593   0.46944   0.61798  -0.37374
C          C       0.68953   0.15612   0.59745  -0.37498
C          C       0.49191   0.32914   0.52568  -0.37209
S          S       0.56812   0.43486   0.06733   0.21819
S          S       0.55683   0.12196   0.39107   0.20731
S          S       0.89628   0.45563   0.12853   0.21197
S          S       0.44949   0.57190   0.38801   0.20894
S          S       0.44247   0.88645   0.16170   0.20151
S          S       0.11705   0.54473   0.31483   0.19851
S          S       0.56558   0.43151   0.56520   0.21405
S          S       0.54661   0.11344   0.89761   0.21060
S          S       0.88888   0.44847   0.64399   0.20311
S          S       0.44316   0.56437   0.85936   0.20564
S          S       0.43683   0.87858   0.61868   0.19280
S          S       0.11521   0.53876   0.78374   0.21010
N          N       0.50120   0.45287   0.10895  -0.10635
N          N       0.56188   0.05112   0.21626  -0.12990
N          N       0.96965   0.52028   0.22898  -0.11830
N          N       0.51460   0.55250   0.35754  -0.10730
N          N       0.45554   0.96590   0.16159  -0.12601
N          N       0.04300   0.48348   0.22969  -0.12521
N          N       0.49950   0.44880   0.59361  -0.11150
N          N       0.54898   0.04163   0.73477  -0.14163
N          N       0.96490   0.51243   0.72756  -0.12088
N          N       0.50810   0.54705   0.84617  -0.11031
N          N       0.44453   0.95855   0.65865  -0.12068
N          N       0.03716   0.47448   0.72896  -0.11797
O          O       0.44716   0.45040   0.10270  -0.44417
O          O       0.65995   0.44143   0.12159  -0.33161
O          O       0.60334   0.39051   0.11139  -0.34287
O          O       0.58047   0.00654   0.10585  -0.43585
O          O       0.54920   0.21049   0.37644  -0.33215
O          O       0.59195   0.20566   0.44418  -0.34112
O          O       0.01554   0.57551   0.29602  -0.44852
O          O       0.79549   0.35818   0.21426  -0.32952
O          O       0.81307   0.41311   0.11436  -0.34125
O          O       0.56690   0.55386   0.37516  -0.44688
O          O       0.35730   0.56631   0.33721  -0.33229
O          O       0.40964   0.61658   0.38374  -0.33844
O          O       0.44073   0.01273   0.22798  -0.43384
O          O       0.44712   0.79895   0.23877  -0.33713
O          O       0.39765   0.80353   0.23371  -0.33910
O          O       0.99719   0.42897   0.15780  -0.42784
O          O       0.20079   0.64216   0.41800  -0.32838
O          O       0.19629   0.58556   0.36854  -0.34841
O          O       0.44479   0.44386   0.58281  -0.44437
O          O       0.65297   0.43605   0.65203  -0.33112
O          O       0.59822   0.38575   0.62340  -0.33949
O          O       0.56838   0.99805   0.61325  -0.42916
O          O       0.54115   0.20395   0.88908  -0.33190
O          O       0.58494   0.19752   0.94104  -0.33855
O          O       0.01206   0.56748   0.79023  -0.45036
O          O       0.78899   0.35010   0.71430  -0.33266
O          O       0.80500   0.40681   0.64158  -0.34107
O          O       0.56106   0.55003   0.86813  -0.44186
O          O       0.35287   0.55872   0.79765  -0.33060
O          O       0.40519   0.60810   0.84678  -0.33802
O          O       0.42856   0.00476   0.74543  -0.42265
O          O       0.44710   0.79320   0.67054  -0.33394
O          O       0.39852   0.79619   0.64800  -0.34542
O          O       0.99082   0.41984   0.65954  -0.43134
O          O       0.19992   0.63644   0.87112  -0.33034
O          O       0.19485   0.57978   0.82492  -0.34473

