data_crystal

_audit_creation_method 'AiiDA-DDEC plugin'

_cell_length_a        32.23782
_cell_length_b        32.42923
_cell_length_c         7.97783

_cell_angle_alpha     121.04319
_cell_angle_beta     69.90430
_cell_angle_gamma     120.16192

_symmetry_space_group_name_Hall 'P 1'
_symmetry_space_group_name_H-M  'P 1'

loop_
_symmetry_equiv_pos_as_xyz
 'x,y,z'

loop_
_atom_site_label
_atom_site_type_symbol
_atom_site_fract_x
_atom_site_fract_y
_atom_site_fract_z
_atom_site_charge
H          H       0.81862   0.49201   0.23825   0.13299
H          H       0.50511   0.31416   0.16945   0.13319
H          H       0.67229   0.18517   0.29838   0.13520
H          H       0.17449   0.50989   0.26916   0.13354
H          H       0.48761   0.67059   0.30590   0.13586
H          H       0.33327   0.81731   0.21467   0.13451
H          H       0.90545   0.51795   0.25150   0.11794
H          H       0.48051   0.37745   0.17783   0.11407
H          H       0.61091   0.09707   0.28955   0.11331
H          H       0.08853   0.48785   0.25905   0.11548
H          H       0.50929   0.60380   0.28785   0.11601
H          H       0.39725   0.90498   0.22775   0.11284
H          H       0.86533   0.37233   0.27069   0.10936
H          H       0.62321   0.49759   0.29999   0.11009
H          H       0.50292   0.12539   0.21615   0.10916
H          H       0.13417   0.63664   0.25409   0.10974
H          H       0.36618   0.48727   0.15004   0.10692
H          H       0.50028   0.87077   0.30591   0.10817
H          H       0.77970   0.34588   0.25112   0.13454
H          H       0.64761   0.43508   0.29189   0.13390
H          H       0.56342   0.21293   0.22847   0.13492
H          H       0.21918   0.65885   0.26730   0.13612
H          H       0.34454   0.55361   0.17147   0.13355
H          H       0.43726   0.78338   0.28717   0.13241
H          H       0.94888   0.43395   0.28972   0.08255
H          H       0.56604   0.52007   0.27768   0.07789
H          H       0.47953   0.04278   0.21556   0.08206
H          H       0.04924   0.57634   0.23244   0.08385
H          H       0.42246   0.46120   0.16666   0.07916
H          H       0.52672   0.95581   0.31016   0.08325
H          H       0.82634   0.48901   0.72465   0.13268
H          H       0.51205   0.32770   0.68345   0.13557
H          H       0.66748   0.18183   0.77254   0.13470
H          H       0.18188   0.51107   0.78749   0.13263
H          H       0.49525   0.68424   0.81823   0.13422
H          H       0.32719   0.81931   0.73247   0.13475
H          H       0.91197   0.51098   0.73853   0.11853
H          H       0.49033   0.39325   0.69183   0.11544
H          H       0.60376   0.09465   0.76543   0.11532
H          H       0.09483   0.48366   0.77263   0.11601
H          H       0.51965   0.61966   0.80197   0.11197
H          H       0.38873   0.90843   0.75157   0.11731
H          H       0.86430   0.36619   0.77882   0.10791
H          H       0.63460   0.50933   0.80941   0.10757
H          H       0.49725   0.13370   0.74215   0.10875
H          H       0.13359   0.62584   0.73002   0.10913
H          H       0.37803   0.49926   0.66150   0.10838
H          H       0.49748   0.87514   0.79117   0.10930
H          H       0.77958   0.34396   0.76148   0.13406
H          H       0.65628   0.44426   0.79878   0.13479
H          H       0.56029   0.22087   0.75543   0.13459
H          H       0.21949   0.65394   0.75177   0.13520
H          H       0.35373   0.56306   0.67839   0.13592
H          H       0.43689   0.78654   0.76758   0.13560
H          H       0.94952   0.42511   0.79244   0.08260
H          H       0.57788   0.53486   0.79608   0.07764
H          H       0.47209   0.04734   0.72278   0.08265
H          H       0.05079   0.56492   0.71816   0.08280
H          H       0.43475   0.47600   0.68139   0.07826
H          H       0.52091   0.95934   0.80297   0.08238
C          C       0.79450   0.41770   0.24446   0.26708
C          C       0.57748   0.37119   0.23060   0.26663
C          C       0.62130   0.20331   0.26177   0.26331
C          C       0.20136   0.58522   0.26716   0.26293
C          C       0.41530   0.61559   0.23882   0.26594
C          C       0.38177   0.79600   0.25092   0.26170
C          C       0.82966   0.46646   0.24600  -0.19438
C          C       0.53041   0.35455   0.19727  -0.19080
C          C       0.63495   0.17100   0.27927  -0.19829
C          C       0.16481   0.53692   0.26464  -0.19100
C          C       0.46169   0.63013   0.27250  -0.18806
C          C       0.37018   0.83001   0.23478  -0.19702
C          C       0.87762   0.48073   0.25339  -0.09159
C          C       0.51687   0.38959   0.20248  -0.08688
C          C       0.60097   0.12230   0.27413  -0.08884
C          C       0.11738   0.52490   0.25966  -0.09249
C          C       0.47359   0.59322   0.26143  -0.08546
C          C       0.40552   0.87848   0.24283  -0.08474
C          C       0.89136   0.44680   0.26091   0.04052
C          C       0.55025   0.44188   0.23948   0.05477
C          C       0.55267   0.10493   0.25038   0.04792
C          C       0.10549   0.56084   0.25702   0.04475
C          C       0.43931   0.54091   0.21594   0.05298
C          C       0.45313   0.89408   0.26949   0.04605
C          C       0.85540   0.39851   0.26105  -0.09989
C          C       0.59713   0.45731   0.27123  -0.10291
C          C       0.54001   0.13842   0.23552  -0.09770
C          C       0.14274   0.60885   0.25922  -0.10374
C          C       0.39305   0.52746   0.18377  -0.10826
C          C       0.46373   0.85911   0.28430  -0.09798
C          C       0.80704   0.38321   0.25122  -0.20649
C          C       0.61139   0.42265   0.26679  -0.20498
C          C       0.57362   0.18769   0.24155  -0.19918
C          C       0.19071   0.62180   0.26580  -0.20686
C          C       0.38034   0.56424   0.19546  -0.20312
C          C       0.42869   0.80986   0.27446  -0.19992
C          C       0.94113   0.46044   0.27036   0.04231
C          C       0.53798   0.48018   0.24669   0.04791
C          C       0.51574   0.05416   0.24225   0.04580
C          C       0.05605   0.54903   0.25043   0.04045
C          C       0.45063   0.50123   0.20323   0.04246
C          C       0.49102   0.94466   0.27915   0.04292
C          C       0.70651   0.36764   0.23579   0.58934
C          C       0.62636   0.33341   0.23690   0.57590
C          C       0.66033   0.28986   0.25086   0.57915
C          C       0.28981   0.63050   0.26509   0.58873
C          C       0.36977   0.65933   0.24971   0.58038
C          C       0.33918   0.70800   0.25143   0.58004
C          C       0.79844   0.41547   0.74279   0.26504
C          C       0.58500   0.38251   0.74067   0.26371
C          C       0.61744   0.20569   0.76338   0.26622
C          C       0.20530   0.58388   0.77070   0.26498
C          C       0.42337   0.62706   0.74924   0.26366
C          C       0.37866   0.79833   0.74910   0.26351
C          C       0.83547   0.46279   0.73750  -0.19253
C          C       0.53827   0.36770   0.70941  -0.18561
C          C       0.62989   0.17035   0.76585  -0.19813
C          C       0.17045   0.53563   0.77507  -0.19565
C          C       0.47014   0.64353   0.78512  -0.18976
C          C       0.36478   0.83248   0.74538  -0.19775
C          C       0.88274   0.47486   0.74525  -0.09650
C          C       0.52639   0.40392   0.71487  -0.08524
C          C       0.59467   0.12217   0.76117  -0.08281
C          C       0.12236   0.52053   0.76658  -0.08883
C          C       0.48358   0.60781   0.77518  -0.08525
C          C       0.39880   0.88174   0.75660  -0.08950
C          C       0.89399   0.44000   0.75872   0.04436
C          C       0.56102   0.45574   0.75215   0.04984
C          C       0.54620   0.10816   0.75145   0.04558
C          C       0.10823   0.55311   0.75188   0.04096
C          C       0.45041   0.55511   0.73035   0.05106
C          C       0.44734   0.89788   0.77324   0.04464
C          C       0.85626   0.39308   0.76491  -0.10344
C          C       0.60760   0.46943   0.78156  -0.10694
C          C       0.53465   0.14430   0.74971  -0.09639
C          C       0.14391   0.60085   0.74564  -0.10340
C          C       0.40385   0.53988   0.69610  -0.10135
C          C       0.46019   0.86290   0.77657  -0.09262
C          C       0.80844   0.38009   0.75586  -0.20597
C          C       0.62032   0.43336   0.77548  -0.20642
C          C       0.56964   0.19339   0.75720  -0.19881
C          C       0.19240   0.61705   0.75666  -0.20417
C          C       0.38970   0.57520   0.70527  -0.20512
C          C       0.42654   0.81299   0.76365  -0.19887
C          C       0.94322   0.45167   0.76757   0.04142
C          C       0.54961   0.49499   0.76232   0.04523
C          C       0.50833   0.05810   0.74698   0.04516
C          C       0.05843   0.53901   0.74149   0.04275
C          C       0.46255   0.51621   0.71865   0.04963
C          C       0.48438   0.94863   0.78177   0.04344
C          C       0.71012   0.36993   0.73751   0.58964
C          C       0.63042   0.34032   0.74266   0.57976
C          C       0.66032   0.29271   0.75300   0.57957
C          C       0.29358   0.63370   0.77201   0.59023
C          C       0.37409   0.66624   0.75618   0.57944
C          C       0.33971   0.71077   0.75140   0.58215
N          N       0.97619   0.50278   0.25571  -0.17875
N          N       0.49535   0.46873   0.21857  -0.18926
N          N       0.52442   0.02241   0.26541  -0.19246
N          N       0.02052   0.50708   0.26599  -0.17997
N          N       0.49276   0.51227   0.23459  -0.18136
N          N       0.48322   0.97630   0.25167  -0.18628
N          N       0.29331   0.67251   0.26070  -0.51951
N          N       0.32665   0.62154   0.26271  -0.52229
N          N       0.37885   0.70400   0.24371  -0.51489
N          N       0.70524   0.32737   0.24563  -0.51652
N          N       0.66839   0.37293   0.22778  -0.51957
N          N       0.61961   0.29049   0.24950  -0.51563
N          N       0.97910   0.49276   0.74668  -0.17813
N          N       0.50732   0.48391   0.73250  -0.18188
N          N       0.51670   0.02634   0.77126  -0.19173
N          N       0.02324   0.49718   0.75959  -0.18161
N          N       0.50477   0.52766   0.75047  -0.18945
N          N       0.47537   0.98070   0.76221  -0.18795
N          N       0.29467   0.67408   0.76346  -0.52039
N          N       0.33199   0.62760   0.77254  -0.52229
N          N       0.38063   0.70917   0.74425  -0.51697
N          N       0.70622   0.32825   0.74569  -0.51993
N          N       0.67363   0.37840   0.73317  -0.52109
N          N       0.62099   0.29607   0.75291  -0.51750
O          O       0.24678   0.59065   0.27406  -0.21990
O          O       0.41084   0.65709   0.24439  -0.22273
O          O       0.34094   0.75010   0.24821  -0.22582
O          O       0.74829   0.40937   0.23244  -0.22112
O          O       0.58420   0.33181   0.23132  -0.22132
O          O       0.66081   0.24969   0.26047  -0.22590
O          O       0.25174   0.59280   0.78272  -0.22140
O          O       0.41658   0.66686   0.75215  -0.21915
O          O       0.33923   0.75128   0.74397  -0.22674
O          O       0.75326   0.40995   0.73215  -0.22081
O          O       0.58952   0.34180   0.74094  -0.22088
O          O       0.65823   0.25147   0.76413  -0.22838

