data_crystal

_audit_creation_method 'AiiDA-DDEC plugin'

_cell_length_a        46.27566
_cell_length_b        46.38564
_cell_length_c         8.08692

_cell_angle_alpha     105.74595
_cell_angle_beta     106.95077
_cell_angle_gamma     119.66888

_symmetry_space_group_name_Hall 'P 1'
_symmetry_space_group_name_H-M  'P 1'

loop_
_symmetry_equiv_pos_as_xyz
 'x,y,z'

loop_
_atom_site_label
_atom_site_type_symbol
_atom_site_fract_x
_atom_site_fract_y
_atom_site_fract_z
_atom_site_charge
H          H       0.60089   0.41191   0.24081   0.11215
H          H       0.56949   0.17971   0.31757   0.11143
H          H       0.80966   0.37885   0.29822   0.11386
H          H       0.37339   0.55759   0.23737   0.11138
H          H       0.41380   0.79411   0.16488   0.11262
H          H       0.17161   0.60017   0.18690   0.10963
H          H       0.63078   0.37965   0.25503   0.13552
H          H       0.60775   0.24427   0.35253   0.13476
H          H       0.74855   0.35132   0.30615   0.13657
H          H       0.34672   0.59282   0.23294   0.13481
H          H       0.37526   0.73032   0.13899   0.13030
H          H       0.23254   0.62566   0.17814   0.13833
H          H       0.54210   0.29683   0.31593   0.13434
H          H       0.68114   0.22428   0.21235   0.13384
H          H       0.74944   0.44229   0.26743   0.13525
H          H       0.43961   0.67556   0.19222   0.13451
H          H       0.30241   0.75237   0.27071   0.13436
H          H       0.23113   0.53653   0.24804   0.13598
H          H       0.51273   0.32970   0.30796   0.11501
H          H       0.64260   0.15930   0.17608   0.12154
H          H       0.81073   0.46986   0.25883   0.11789
H          H       0.46572   0.63963   0.19143   0.11401
H          H       0.34210   0.81711   0.30518   0.11909
H          H       0.16958   0.51040   0.25235   0.11517
H          H       0.52981   0.44313   0.09548   0.26160
H          H       0.50747   0.06928   0.22481   0.26407
H          H       0.90266   0.42116   0.21804   0.26456
H          H       0.42665   0.50939   0.29532   0.26115
H          H       0.47601   0.90257   0.23827   0.26742
H          H       0.07554   0.55785   0.24682   0.25708
H          H       0.51586   0.38411   0.31702   0.09933
H          H       0.59506   0.11294   0.21562   0.09850
H          H       0.86373   0.47061   0.27748   0.10456
H          H       0.46346   0.58782   0.20579   0.10046
H          H       0.39342   0.86491   0.29326   0.10113
H          H       0.11844   0.51177   0.23840   0.10004
H          H       0.52763   0.54084   0.22764   0.12200
H          H       0.42252   0.94994   0.04452   0.12767
H          H       0.01206   0.45219   0.28224   0.13258
H          H       0.44558   0.42609   0.27063   0.12256
H          H       0.56473   0.02608   0.45086   0.13146
H          H       0.96995   0.53054   0.22577   0.13132
H          H       0.54662   0.49986   0.25111   0.10810
H          H       0.46613   0.01021   0.05383   0.10908
H          H       0.95252   0.43452   0.28528   0.10096
H          H       0.42555   0.46552   0.23809   0.10419
H          H       0.52079   0.96413   0.43110   0.10333
H          H       0.02909   0.54792   0.22054   0.10557
H          H       0.62609   0.44242   0.75998   0.11064
H          H       0.58427   0.20482   0.82585   0.11425
H          H       0.82651   0.39833   0.79784   0.11079
H          H       0.39942   0.58884   0.76458   0.11237
H          H       0.42921   0.81973   0.67961   0.11199
H          H       0.18847   0.61887   0.68953   0.11211
H          H       0.65241   0.40679   0.76285   0.13296
H          H       0.62341   0.26904   0.85640   0.13027
H          H       0.76543   0.37251   0.80510   0.13814
H          H       0.36909   0.62060   0.74708   0.13578
H          H       0.39137   0.75538   0.64728   0.13643
H          H       0.25036   0.64738   0.68874   0.13527
H          H       0.56006   0.32486   0.80905   0.13456
H          H       0.69626   0.24692   0.72487   0.13417
H          H       0.77028   0.46553   0.77171   0.13597
H          H       0.45731   0.70306   0.68187   0.13462
H          H       0.31623   0.77416   0.77364   0.13434
H          H       0.25151   0.55841   0.74446   0.13454
H          H       0.53423   0.36113   0.81139   0.11281
H          H       0.65610   0.18195   0.68622   0.11539
H          H       0.83178   0.49175   0.76695   0.11349
H          H       0.48714   0.67065   0.69388   0.11275
H          H       0.35438   0.83894   0.80706   0.12071
H          H       0.18945   0.52986   0.74589   0.11756
H          H       0.57435   0.49219   0.71547   0.26164
H          H       0.52155   0.09564   0.74630   0.27281
H          H       0.92400   0.44248   0.75103   0.25613
H          H       0.47093   0.55848   0.91621   0.26140
H          H       0.49099   0.92975   0.77005   0.26349
H          H       0.09720   0.57852   0.78015   0.26586
H          H       0.53727   0.41352   0.80321   0.10093
H          H       0.60469   0.13406   0.69604   0.10025
H          H       0.88118   0.48861   0.76273   0.10027
H          H       0.48417   0.61628   0.68723   0.10019
H          H       0.40211   0.88530   0.76667   0.09817
H          H       0.13449   0.52751   0.71125   0.10615
H          H       0.55599   0.57615   0.74551   0.12319
H          H       0.43313   0.97159   0.52867   0.13200
H          H       0.03103   0.47123   0.78974   0.13151
H          H       0.47448   0.46171   0.79203   0.12020
H          H       0.57532   0.04828   0.93868   0.12958
H          H       0.98722   0.54755   0.71214   0.12924
H          H       0.57637   0.53697   0.77982   0.10532
H          H       0.47703   0.03363   0.54866   0.10306
H          H       0.97282   0.45512   0.80368   0.10445
H          H       0.45517   0.50227   0.76589   0.10769
H          H       0.53186   0.98790   0.92768   0.10892
H          H       0.04605   0.56418   0.70278   0.10126
C          C       0.55450   0.37289   0.27052   0.05143
C          C       0.60328   0.16501   0.24425   0.04830
C          C       0.81436   0.42604   0.27748   0.04968
C          C       0.42141   0.59622   0.21622   0.04213
C          C       0.38103   0.81022   0.23975   0.04841
C          C       0.16625   0.55355   0.21961   0.05471
C          C       0.58795   0.38665   0.25693  -0.09161
C          C       0.59361   0.18926   0.29174  -0.08618
C          C       0.79626   0.39255   0.29006  -0.08688
C          C       0.38773   0.58339   0.22689  -0.08652
C          C       0.38971   0.78511   0.19078  -0.08834
C          C       0.18457   0.58613   0.19948  -0.08924
C          C       0.60492   0.36881   0.26461  -0.19933
C          C       0.61505   0.22558   0.31310  -0.20217
C          C       0.76216   0.37701   0.29526  -0.19739
C          C       0.37263   0.60289   0.22461  -0.20202
C          C       0.36796   0.74917   0.17308  -0.20227
C          C       0.21870   0.60072   0.19518  -0.19650
C          C       0.55447   0.32204   0.29931  -0.19626
C          C       0.65672   0.21407   0.23573  -0.19253
C          C       0.76314   0.42888   0.27404  -0.19941
C          C       0.42562   0.64981   0.20325  -0.19529
C          C       0.32680   0.76199   0.24740  -0.19553
C          C       0.21739   0.54980   0.23298  -0.20223
C          C       0.53830   0.34047   0.29422  -0.11622
C          C       0.63517   0.17801   0.21629  -0.11250
C          C       0.79727   0.44406   0.27027  -0.11868
C          C       0.44010   0.62976   0.20405  -0.10743
C          C       0.34911   0.79796   0.26684  -0.11229
C          C       0.18312   0.53542   0.23465  -0.11056
C          C       0.50503   0.43253   0.26881   0.42027
C          C       0.54732   0.05984   0.27538   0.42696
C          C       0.92191   0.47464   0.26112   0.42345
C          C       0.46580   0.53171   0.20569   0.43691
C          C       0.43975   0.91616   0.22066   0.42056
C          C       0.05992   0.50782   0.24581   0.42173
C          C       0.53592   0.39073   0.26202   0.00518
C          C       0.58265   0.12760   0.22973   0.00651
C          C       0.84981   0.44287   0.26976   0.01991
C          C       0.43786   0.57642   0.21953   0.01932
C          C       0.40320   0.84811   0.26099   0.01971
C          C       0.13116   0.53798   0.23046   0.02432
C          C       0.29453   0.62371   0.21023   0.57686
C          C       0.34980   0.65425   0.20748   0.58149
C          C       0.31793   0.67812   0.20052   0.58145
C          C       0.68700   0.35288   0.29167   0.57878
C          C       0.63156   0.32047   0.29024   0.58088
C          C       0.66521   0.29847   0.30019   0.58216
C          C       0.39194   0.63627   0.21290   0.26851
C          C       0.33659   0.73797   0.20310   0.26633
C          C       0.23515   0.58244   0.21436   0.26282
C          C       0.58768   0.33624   0.28435   0.25774
C          C       0.64666   0.23776   0.28442   0.26763
C          C       0.74574   0.39547   0.28647   0.26330
C          C       0.50972   0.51542   0.23500  -0.09079
C          C       0.45368   0.96671   0.13259  -0.09171
C          C       0.00217   0.46877   0.26692  -0.09629
C          C       0.46314   0.45112   0.25946  -0.08940
C          C       0.53352   0.00871   0.35965  -0.09546
C          C       0.97938   0.51349   0.23757  -0.09707
C          C       0.52005   0.49221   0.24781  -0.10972
C          C       0.47849   0.00118   0.14318  -0.12444
C          C       0.96844   0.45905   0.26698  -0.12166
C          C       0.45257   0.47404   0.24442  -0.12409
C          C       0.50866   0.97384   0.34610  -0.11645
C          C       0.01296   0.52311   0.23656  -0.12806
C          C       0.49651   0.45942   0.25665  -0.02463
C          C       0.51875   0.02284   0.25909  -0.03652
C          C       0.95657   0.48131   0.25253  -0.02556
C          C       0.47562   0.50638   0.23082  -0.03262
C          C       0.46845   0.95258   0.23304  -0.02823
C          C       0.02496   0.50090   0.25177  -0.03749
C          C       0.57846   0.40426   0.78508   0.04122
C          C       0.61711   0.18878   0.75143   0.04784
C          C       0.83339   0.44666   0.78126   0.05337
C          C       0.44569   0.62776   0.73383   0.04914
C          C       0.39457   0.83384   0.74587   0.04791
C          C       0.18468   0.57257   0.71740   0.04770
C          C       0.61181   0.41671   0.77143  -0.08523
C          C       0.60855   0.21395   0.80145  -0.09027
C          C       0.81422   0.41310   0.79253  -0.08732
C          C       0.41221   0.61395   0.74721  -0.09099
C          C       0.40482   0.80998   0.70319  -0.08493
C          C       0.20249   0.60581   0.70255  -0.08712
C          C       0.62672   0.39702   0.77310  -0.19940
C          C       0.63061   0.25012   0.82186  -0.20281
C          C       0.78002   0.39837   0.79632  -0.19643
C          C       0.39499   0.63153   0.73774  -0.20119
C          C       0.38368   0.77382   0.68387  -0.20176
C          C       0.23701   0.62190   0.70160  -0.19245
C          C       0.57400   0.35055   0.79757  -0.19328
C          C       0.67180   0.23734   0.74762  -0.19124
C          C       0.78323   0.45141   0.77858  -0.20225
C          C       0.44520   0.67813   0.70098  -0.19703
C          C       0.34103   0.78463   0.75328  -0.19439
C          C       0.23712   0.57109   0.73190  -0.19591
C          C       0.55970   0.37077   0.79748  -0.10602
C          C       0.64922   0.20119   0.72576  -0.10940
C          C       0.81743   0.46576   0.77608  -0.10696
C          C       0.46160   0.65992   0.70791  -0.11208
C          C       0.36229   0.82055   0.77060  -0.11228
C          C       0.20255   0.55536   0.73159  -0.11840
C          C       0.53608   0.47059   0.81064   0.43932
C          C       0.55812   0.08233   0.76495   0.42363
C          C       0.94052   0.49340   0.76179   0.42479
C          C       0.49632   0.56936   0.74547   0.42122
C          C       0.45053   0.93832   0.70795   0.42679
C          C       0.07741   0.52496   0.73778   0.42311
C          C       0.56254   0.42457   0.78651   0.02005
C          C       0.59478   0.15073   0.72827   0.02067
C          C       0.86850   0.46234   0.77044   0.02429
C          C       0.46440   0.61007   0.74400   0.00520
C          C       0.41503   0.87107   0.75825   0.00620
C          C       0.14891   0.55554   0.72240   0.01958
C          C       0.31279   0.64709   0.71133   0.57814
C          C       0.36779   0.67930   0.70851   0.57830
C          C       0.33397   0.70108   0.69863   0.57994
C          C       0.70499   0.37625   0.79029   0.57134
C          C       0.64967   0.34581   0.79321   0.58503
C          C       0.68139   0.32176   0.79924   0.58108
C          C       0.41199   0.66390   0.71616   0.25820
C          C       0.35181   0.76141   0.71042   0.26625
C          C       0.25416   0.60423   0.71677   0.25796
C          C       0.60756   0.36388   0.78702   0.26582
C          C       0.66212   0.26144   0.79297   0.26548
C          C       0.76454   0.41770   0.78742   0.26000
C          C       0.53860   0.55119   0.75754  -0.09056
C          C       0.46433   0.98914   0.62079  -0.09407
C          C       0.02114   0.48775   0.77279  -0.09984
C          C       0.49229   0.48701   0.78350  -0.08581
C          C       0.54417   0.03143   0.84993  -0.09094
C          C       0.99741   0.53134   0.73159  -0.09304
C          C       0.54933   0.52842   0.77342  -0.12338
C          C       0.48917   0.02408   0.63487  -0.11805
C          C       0.98798   0.47869   0.77747  -0.12867
C          C       0.48180   0.51008   0.76979  -0.11332
C          C       0.51937   0.99687   0.83862  -0.12351
C          C       0.03081   0.54060   0.72863  -0.12314
C          C       0.52636   0.49607   0.78727  -0.03516
C          C       0.52939   0.04560   0.74992  -0.03254
C          C       0.97541   0.50023   0.75543  -0.03843
C          C       0.50515   0.54277   0.75972  -0.02329
C          C       0.47910   0.97517   0.72280  -0.03885
C          C       0.04309   0.51884   0.74856  -0.02773
N          N       0.52715   0.43167   0.18741  -0.23880
N          N       0.53273   0.07823   0.22891  -0.24240
N          N       0.89669   0.43965   0.24306  -0.24276
N          N       0.43778   0.52802   0.24678  -0.22119
N          N       0.45295   0.89603   0.25480  -0.24790
N          N       0.08361   0.54115   0.24659  -0.23121
N          N       0.29002   0.64976   0.20874  -0.51953
N          N       0.32391   0.62414   0.21027  -0.51957
N          N       0.34850   0.68234   0.20050  -0.52027
N          N       0.69333   0.32819   0.29996  -0.51295
N          N       0.65658   0.35083   0.28612  -0.51447
N          N       0.63388   0.29286   0.29617  -0.52516
N          N       0.54320   0.41342   0.18760  -0.14701
N          N       0.55108   0.11313   0.23750  -0.15858
N          N       0.86349   0.42426   0.25185  -0.15539
N          N       0.42215   0.54658   0.24197  -0.15117
N          N       0.43312   0.86049   0.23887  -0.14979
N          N       0.11635   0.55562   0.23307  -0.15781
N          N       0.56359   0.47384   0.76601  -0.22155
N          N       0.54479   0.10239   0.73123  -0.25677
N          N       0.91634   0.45958   0.75593  -0.23038
N          N       0.47348   0.56961   0.82294  -0.23836
N          N       0.46534   0.92052   0.76140  -0.23887
N          N       0.10255   0.55955   0.75205  -0.24437
N          N       0.30615   0.67151   0.70124  -0.51381
N          N       0.34319   0.64922   0.71592  -0.51281
N          N       0.36518   0.70667   0.70088  -0.52284
N          N       0.70940   0.35010   0.79123  -0.51509
N          N       0.67551   0.37576   0.78925  -0.51935
N          N       0.65101   0.31778   0.80095  -0.52108
N          N       0.57857   0.45464   0.76617  -0.15128
N          N       0.56470   0.13811   0.74906  -0.14803
N          N       0.88352   0.44492   0.76867  -0.15810
N          N       0.45735   0.58778   0.82085  -0.14756
N          N       0.44712   0.88588   0.75552  -0.15900
N          N       0.13583   0.57466   0.74420  -0.15223
O          O       0.38153   0.65990   0.21017  -0.21849
O          O       0.31139   0.70306   0.19051  -0.21641
O          O       0.26921   0.59274   0.21478  -0.22461
O          O       0.59974   0.31393   0.29077  -0.22148
O          O       0.67221   0.27368   0.30676  -0.22067
O          O       0.71171   0.38437   0.28878  -0.22604
O          O       0.48190   0.55402   0.14750  -0.47497
O          O       0.40716   0.90558   0.18390  -0.45411
O          O       0.06624   0.48464   0.23885  -0.44829
O          O       0.49306   0.41358   0.34910  -0.46451
O          O       0.58092   0.07242   0.32529  -0.45498
O          O       0.91725   0.49916   0.28560  -0.44445
O          O       0.39948   0.68578   0.70646  -0.22059
O          O       0.32682   0.72579   0.69251  -0.21654
O          O       0.28865   0.61595   0.71865  -0.22398
O          O       0.61800   0.34026   0.79098  -0.22079
O          O       0.68755   0.29652   0.80750  -0.21696
O          O       0.73056   0.40744   0.78807  -0.22071
O          O       0.50852   0.58855   0.66651  -0.46357
O          O       0.41669   0.92539   0.65372  -0.45552
O          O       0.08194   0.50035   0.71516  -0.44281
O          O       0.52018   0.44832   0.86951  -0.47631
O          O       0.59087   0.09328   0.80355  -0.45271
O          O       0.93455   0.51690   0.77235  -0.44966

