data_crystal

_audit_creation_method 'AiiDA-DDEC plugin'

_cell_length_a        39.49620
_cell_length_b        39.68757
_cell_length_c         8.16155

_cell_angle_alpha     109.49520
_cell_angle_beta     102.98784
_cell_angle_gamma     120.05514

_symmetry_space_group_name_Hall 'P 1'
_symmetry_space_group_name_H-M  'P 1'

loop_
_symmetry_equiv_pos_as_xyz
 'x,y,z'

loop_
_atom_site_label
_atom_site_type_symbol
_atom_site_fract_x
_atom_site_fract_y
_atom_site_fract_z
_atom_site_charge
H          H       0.79096   0.46575   0.22239   0.13436
H          H       0.53488   0.32625   0.24144   0.13376
H          H       0.67751   0.21246   0.24758   0.13317
H          H       0.22031   0.54352   0.29990   0.13519
H          H       0.47217   0.68135   0.28586   0.13290
H          H       0.32569   0.79178   0.23185   0.13492
H          H       0.86487   0.48931   0.24664   0.11535
H          H       0.51353   0.37615   0.24001   0.11783
H          H       0.62607   0.14044   0.24108   0.11716
H          H       0.14677   0.51836   0.28827   0.11772
H          H       0.49218   0.63058   0.29146   0.11688
H          H       0.37661   0.86377   0.23646   0.11738
H          H       0.83653   0.37240   0.27330   0.10412
H          H       0.63707   0.46999   0.26835   0.10781
H          H       0.53629   0.17126   0.24411   0.10645
H          H       0.16553   0.62840   0.22143   0.10358
H          H       0.36460   0.53513   0.22968   0.10844
H          H       0.46777   0.83457   0.24147   0.10465
H          H       0.76306   0.34849   0.24508   0.13568
H          H       0.65846   0.42094   0.27153   0.13503
H          H       0.58696   0.24234   0.25002   0.13235
H          H       0.23893   0.65421   0.23889   0.13418
H          H       0.34417   0.58434   0.21658   0.13462
H          H       0.41754   0.76353   0.23711   0.13303
H          H       0.90653   0.42374   0.29904   0.06021
H          H       0.58558   0.48505   0.24478   0.06342
H          H       0.51673   0.10310   0.23425   0.05983
H          H       0.09873   0.57758   0.21682   0.05759
H          H       0.41816   0.52202   0.28359   0.06640
H          H       0.48698   0.90195   0.25061   0.05699
H          H       0.99580   0.56099   0.40406   0.11855
H          H       0.45805   0.43414   0.28248   0.11565
H          H       0.57868   0.03538   0.29544   0.11056
H          H       0.01324   0.44221   0.12566   0.11897
H          H       0.54130   0.56710   0.21098   0.11523
H          H       0.42514   0.96945   0.18545   0.11367
H          H       0.06738   0.58343   0.40723   0.10425
H          H       0.43183   0.47903   0.27988   0.10816
H          H       0.53322   0.96367   0.29293   0.10841
H          H       0.94171   0.41969   0.12284   0.10623
H          H       0.56731   0.52203   0.21202   0.10801
H          H       0.47058   0.04123   0.18826   0.10531
H          H       0.78132   0.45911   0.70843   0.13456
H          H       0.53286   0.32512   0.78382   0.12934
H          H       0.67217   0.20564   0.72540   0.13277
H          H       0.21161   0.53637   0.78992   0.13477
H          H       0.46098   0.67036   0.71494   0.12967
H          H       0.32163   0.78715   0.75136   0.13239
H          H       0.85596   0.48528   0.73482   0.11597
H          H       0.51020   0.37330   0.76762   0.11743
H          H       0.62336   0.13391   0.72533   0.11910
H          H       0.13884   0.51343   0.78077   0.11763
H          H       0.48498   0.62322   0.73158   0.11655
H          H       0.37135   0.85846   0.74972   0.11939
H          H       0.83425   0.37297   0.78800   0.10381
H          H       0.62473   0.45599   0.71232   0.10592
H          H       0.53481   0.16519   0.76411   0.10410
H          H       0.16275   0.62694   0.73250   0.10377
H          H       0.37364   0.54182   0.80690   0.10409
H          H       0.45836   0.82506   0.71242   0.10761
H          H       0.75981   0.34608   0.75570   0.13464
H          H       0.64840   0.40996   0.73879   0.13341
H          H       0.58255   0.23555   0.75966   0.13319
H          H       0.23513   0.65030   0.74581   0.13550
H          H       0.34879   0.58717   0.78203   0.13106
H          H       0.41009   0.75545   0.72061   0.13305
H          H       0.90324   0.42551   0.81236   0.05751
H          H       0.57005   0.46778   0.66858   0.06556
H          H       0.51823   0.09990   0.76628   0.05863
H          H       0.09522   0.57739   0.72722   0.05713
H          H       0.42876   0.53049   0.84274   0.06516
H          H       0.47616   0.89092   0.71099   0.05984
H          H       0.99032   0.56108   0.89929   0.11779
H          H       0.44536   0.42205   0.69909   0.11870
H          H       0.57646   0.03097   0.83045   0.11181
H          H       0.00818   0.44202   0.64168   0.11837
H          H       0.55012   0.57401   0.79089   0.11831
H          H       0.41816   0.95993   0.64385   0.11318
H          H       0.06160   0.58278   0.90215   0.10526
H          H       0.42118   0.46863   0.68553   0.10786
H          H       0.52922   0.96056   0.83493   0.10670
H          H       0.93661   0.42018   0.63626   0.10314
H          H       0.57444   0.52764   0.80567   0.10874
H          H       0.46524   0.02997   0.63676   0.10726
C          C       0.66584   0.30207   0.24534   0.57995
C          C       0.70163   0.36590   0.23601   0.57809
C          C       0.63811   0.33954   0.25142   0.58937
C          C       0.33879   0.70377   0.24419   0.57692
C          C       0.30404   0.64103   0.26147   0.57873
C          C       0.36764   0.66751   0.24732   0.58515
C          C       0.59754   0.37072   0.25490   0.26450
C          C       0.63503   0.23115   0.24932   0.26827
C          C       0.77339   0.40624   0.23441   0.26262
C          C       0.40732   0.63569   0.25110   0.26636
C          C       0.36888   0.77402   0.23431   0.27093
C          C       0.23310   0.59995   0.27016   0.26549
C          C       0.80175   0.44589   0.23421  -0.19516
C          C       0.55653   0.35767   0.24519  -0.18907
C          C       0.64648   0.20281   0.24796  -0.18794
C          C       0.20752   0.56156   0.28326  -0.20219
C          C       0.44920   0.64910   0.27361  -0.19255
C          C       0.35689   0.80183   0.23238  -0.19087
C          C       0.84257   0.45895   0.24829  -0.08218
C          C       0.54480   0.38520   0.24441  -0.09196
C          C       0.61812   0.16313   0.24361  -0.08335
C          C       0.16702   0.54765   0.27598  -0.08191
C          C       0.46010   0.62104   0.27642  -0.08984
C          C       0.38493   0.84139   0.23511  -0.07952
C          C       0.85592   0.43274   0.26393   0.04304
C          C       0.57372   0.42623   0.25320   0.03379
C          C       0.57773   0.15093   0.24140   0.04376
C          C       0.15130   0.57162   0.25284   0.04339
C          C       0.42962   0.57932   0.25944   0.03595
C          C       0.42555   0.85394   0.23907   0.04173
C          C       0.82674   0.39307   0.26198  -0.09961
C          C       0.61456   0.43854   0.26319  -0.10447
C          C       0.56711   0.17992   0.24328  -0.11237
C          C       0.17770   0.60998   0.24095  -0.09766
C          C       0.38816   0.56692   0.23942  -0.10470
C          C       0.43659   0.82537   0.23957  -0.10550
C          C       0.78534   0.37912   0.24627  -0.19873
C          C       0.62709   0.41138   0.26536  -0.20532
C          C       0.59537   0.22017   0.24827  -0.21151
C          C       0.21889   0.62492   0.25053  -0.19973
C          C       0.37623   0.59431   0.23213  -0.20210
C          C       0.40869   0.78526   0.23623  -0.21231
C          C       0.89844   0.44528   0.27774   0.07365
C          C       0.56198   0.45554   0.25087   0.07109
C          C       0.54770   0.10977   0.24002   0.06476
C          C       0.10875   0.55771   0.24271   0.07485
C          C       0.44049   0.54944   0.26369   0.06838
C          C       0.45580   0.89520   0.24168   0.07325
C          C       0.96424   0.48927   0.26692   0.19960
C          C       0.51460   0.47482   0.25015   0.19973
C          C       0.52849   0.04368   0.24371   0.20150
C          C       0.04479   0.51392   0.26321   0.20290
C          C       0.48534   0.52707   0.24766   0.19996
C          C       0.47534   0.96128   0.23704   0.21144
C          C       0.00002   0.53531   0.34287  -0.14232
C          C       0.47592   0.46331   0.26615  -0.13931
C          C       0.54496   0.02056   0.27221  -0.13110
C          C       0.00907   0.46789   0.18775  -0.14618
C          C       0.52371   0.53823   0.22928  -0.14222
C          C       0.45891   0.98444   0.20906  -0.13862
C          C       0.03970   0.54754   0.34330  -0.17797
C          C       0.46150   0.48877   0.26490  -0.16209
C          C       0.51918   0.98029   0.26917  -0.16728
C          C       0.96934   0.45563   0.18707  -0.17593
C          C       0.53809   0.51278   0.23039  -0.16328
C          C       0.48469   0.02469   0.21222  -0.16213
C          C       0.65992   0.29589   0.74299   0.58267
C          C       0.69518   0.35995   0.73511   0.58181
C          C       0.63224   0.33357   0.75618   0.58300
C          C       0.33343   0.69773   0.74795   0.58288
C          C       0.29825   0.63436   0.76067   0.58109
C          C       0.36180   0.66095   0.74525   0.59215
C          C       0.59160   0.36466   0.76055   0.26568
C          C       0.63013   0.22436   0.74317   0.27298
C          C       0.76698   0.40176   0.73354   0.26433
C          C       0.40370   0.63125   0.74753   0.26495
C          C       0.36309   0.76767   0.73620   0.26715
C          C       0.22711   0.59439   0.76879   0.26609
C          C       0.79369   0.44082   0.72641  -0.20115
C          C       0.55258   0.35407   0.76886  -0.19515
C          C       0.64192   0.19601   0.73460  -0.18927
C          C       0.20014   0.55569   0.77767  -0.20000
C          C       0.44226   0.64187   0.73410  -0.19258
C          C       0.35185   0.79637   0.74299  -0.18661
C          C       0.83496   0.45536   0.74191  -0.08192
C          C       0.54006   0.38067   0.75946  -0.08943
C          C       0.61495   0.15649   0.73438  -0.08045
C          C       0.15997   0.54297   0.77167  -0.08194
C          C       0.45547   0.61585   0.74363  -0.09293
C          C       0.37928   0.83559   0.74239  -0.08754
C          C       0.85046   0.43134   0.76692   0.04226
C          C       0.56581   0.41783   0.73836   0.03394
C          C       0.57572   0.14466   0.74506   0.03808
C          C       0.14590   0.56859   0.75526   0.04538
C          C       0.43083   0.57925   0.76949   0.03594
C          C       0.41834   0.84666   0.73198   0.04578
C          C       0.82274   0.39201   0.77043  -0.09787
C          C       0.60468   0.42770   0.73076  -0.10429
C          C       0.56478   0.17368   0.75382  -0.10282
C          C       0.17351   0.60713   0.74677  -0.09823
C          C       0.39257   0.56954   0.78360  -0.10192
C          C       0.42864   0.81720   0.72383  -0.11378
C          C       0.78082   0.37644   0.75244  -0.19947
C          C       0.61835   0.40196   0.74447  -0.20706
C          C       0.59138   0.21351   0.75290  -0.21420
C          C       0.21425   0.62071   0.75405  -0.19863
C          C       0.37827   0.59482   0.77061  -0.20811
C          C       0.40161   0.77770   0.72604  -0.20960
C          C       0.89367   0.44558   0.78473   0.07680
C          C       0.55267   0.44539   0.72056   0.07039
C          C       0.54676   0.10407   0.75002   0.07164
C          C       0.10399   0.55636   0.74904   0.07014
C          C       0.44450   0.55196   0.78453   0.07493
C          C       0.44765   0.88699   0.72649   0.06385
C          C       0.95884   0.48951   0.77143   0.20134
C          C       0.51104   0.47103   0.74988   0.19872
C          C       0.52490   0.03618   0.73856   0.20962
C          C       0.03944   0.51343   0.76851   0.20168
C          C       0.48471   0.52527   0.74277   0.19995
C          C       0.46977   0.95487   0.73696   0.20249
C          C       0.99449   0.53523   0.84203  -0.14172
C          C       0.46800   0.45540   0.71895  -0.14290
C          C       0.54160   0.01487   0.78902  -0.14088
C          C       0.00388   0.46778   0.69859  -0.14508
C          C       0.52763   0.54077   0.77223  -0.14392
C          C       0.45303   0.97608   0.68571  -0.13907
C          C       0.03414   0.54710   0.84274  -0.17974
C          C       0.45487   0.48177   0.71364  -0.16712
C          C       0.51485   0.97524   0.78911  -0.16725
C          C       0.96420   0.45590   0.69729  -0.17405
C          C       0.54078   0.51445   0.77801  -0.16793
C          C       0.47969   0.01554   0.68455  -0.17109
N          N       0.63348   0.30373   0.25441  -0.51985
N          N       0.70090   0.33197   0.23393  -0.51471
N          N       0.67121   0.37193   0.24443  -0.52107
N          N       0.37168   0.70265   0.23906  -0.52114
N          N       0.30365   0.67387   0.25563  -0.51363
N          N       0.33500   0.63571   0.25773  -0.51371
N          N       0.92518   0.47992   0.26793  -0.29017
N          N       0.52607   0.44686   0.25550  -0.30100
N          N       0.55752   0.08352   0.24707  -0.29510
N          N       0.08380   0.52369   0.25998  -0.28958
N          N       0.47436   0.55546   0.24412  -0.30127
N          N       0.44603   0.92135   0.23246  -0.30132
N          N       0.62785   0.29762   0.75696  -0.52190
N          N       0.69484   0.32611   0.73158  -0.51687
N          N       0.66475   0.36574   0.74603  -0.51320
N          N       0.36612   0.69655   0.74112  -0.52336
N          N       0.29849   0.66786   0.76012  -0.51914
N          N       0.32892   0.62862   0.75347  -0.52224
N          N       0.91951   0.47984   0.77063  -0.29166
N          N       0.52174   0.44277   0.75938  -0.29323
N          N       0.55457   0.07568   0.74090  -0.29805
N          N       0.07822   0.52237   0.76480  -0.28912
N          N       0.47395   0.55358   0.73537  -0.29590
N          N       0.44010   0.91555   0.73543  -0.29310
O          O       0.60398   0.33916   0.25680  -0.22070
O          O       0.66710   0.26900   0.24866  -0.21824
O          O       0.73440   0.39925   0.22648  -0.22995
O          O       0.40176   0.66758   0.24456  -0.22316
O          O       0.33703   0.73627   0.23618  -0.21880
O          O       0.27217   0.60794   0.27493  -0.22894
O          O       0.59883   0.33388   0.76885  -0.22074
O          O       0.66111   0.26232   0.73989  -0.22226
O          O       0.72747   0.39353   0.72464  -0.23135
O          O       0.39579   0.66137   0.73754  -0.22001
O          O       0.33159   0.73021   0.74067  -0.22026
O          O       0.26566   0.60105   0.77113  -0.23213

