data_crystal

_audit_creation_method 'AiiDA-DDEC plugin'

_cell_length_a        41.91348
_cell_length_b        20.03989
_cell_length_c        14.02008

_cell_angle_alpha     91.17043
_cell_angle_beta     105.34110
_cell_angle_gamma     89.98684

_symmetry_space_group_name_Hall 'P 1'
_symmetry_space_group_name_H-M  'P 1'

loop_
_symmetry_equiv_pos_as_xyz
 'x,y,z'

loop_
_atom_site_label
_atom_site_type_symbol
_atom_site_fract_x
_atom_site_fract_y
_atom_site_fract_z
_atom_site_charge
H          H       0.18597   0.34480   0.85120   0.12239
H          H       0.81398   0.34439   0.15201   0.12239
H          H       0.68666   0.84387   0.84834   0.12084
H          H       0.31500   0.84596   0.15571   0.12174
H          H       0.29503   0.45666   0.89220   0.11498
H          H       0.70571   0.45574   0.12302   0.11363
H          H       0.79381   0.95973   0.87486   0.11374
H          H       0.20689   0.95878   0.12394   0.11447
H          H       0.25706   0.49583   0.99108   0.12618
H          H       0.74333   0.49570   0.02537   0.12748
H          H       0.75614   0.00091   0.97332   0.12737
H          H       0.24495   0.99780   0.02739   0.12708
H          H       0.23916   0.22417   0.63503   0.11484
H          H       0.76046   0.22151   0.36031   0.11578
H          H       0.73987   0.71800   0.63702   0.11342
H          H       0.26085   0.72365   0.36137   0.11485
H          H       0.29745   0.26969   0.49358   0.07674
H          H       0.70284   0.26364   0.50608   0.07717
H          H       0.79713   0.75957   0.49016   0.07629
H          H       0.20301   0.76011   0.50547   0.07612
H          H       0.25797   0.25696   0.51273   0.06968
H          H       0.74207   0.25116   0.48429   0.06907
H          H       0.75811   0.74608   0.51215   0.07007
H          H       0.24167   0.74489   0.48197   0.06974
H          H       0.28053   0.15406   0.61425   0.11779
H          H       0.71626   0.15246   0.36647   0.12315
H          H       0.78221   0.64709   0.61961   0.11803
H          H       0.21325   0.65386   0.35379   0.12426
H          H       0.31966   0.16889   0.59242   0.13646
H          H       0.67926   0.16415   0.40345   0.13674
H          H       0.82134   0.66389   0.59910   0.13688
H          H       0.17596   0.66966   0.38734   0.13667
H          H       0.28511   0.14743   0.49164   0.12726
H          H       0.71625   0.14069   0.49202   0.12671
H          H       0.78784   0.63723   0.49845   0.12764
H          H       0.21072   0.63695   0.47594   0.12965
H          H       0.19454   0.19693   0.69202   0.06234
H          H       0.80533   0.19605   0.30450   0.06408
H          H       0.69541   0.69254   0.69567   0.06378
H          H       0.30545   0.69824   0.30985   0.06375
H          H       0.10472   0.29741   0.61069   0.12281
H          H       0.89480   0.29654   0.38583   0.12283
H          H       0.60642   0.79125   0.60518   0.12273
H          H       0.39566   0.79841   0.38611   0.12265
H          H       0.05470   0.22616   0.58746   0.11349
H          H       0.94451   0.22509   0.40559   0.11325
H          H       0.55592   0.72173   0.58456   0.11367
H          H       0.44542   0.72701   0.40898   0.11394
H          H       0.11179   0.08350   0.78690   0.11042
H          H       0.88672   0.08175   0.19806   0.11080
H          H       0.61104   0.58547   0.79906   0.11009
H          H       0.38742   0.57864   0.21181   0.11006
H          H       0.16183   0.15300   0.80669   0.11520
H          H       0.83705   0.15170   0.18157   0.11558
H          H       0.66157   0.65375   0.81761   0.11616
H          H       0.33764   0.64843   0.19260   0.11573
H          H       0.07478   0.92983   0.78020   0.11031
H          H       0.92311   0.92605   0.20485   0.10753
H          H       0.57480   0.42773   0.78515   0.11096
H          H       0.42468   0.42415   0.21770   0.11064
H          H       0.12577   0.86896   0.77430   0.10902
H          H       0.87225   0.86492   0.21096   0.10770
H          H       0.62569   0.36630   0.78009   0.10834
H          H       0.37391   0.36328   0.22512   0.10629
H          H       0.13599   0.99244   0.53659   0.10701
H          H       0.86158   0.99579   0.44767   0.10748
H          H       0.63781   0.49177   0.54659   0.10733
H          H       0.36373   0.49453   0.46192   0.10687
H          H       0.08481   0.05379   0.54295   0.10408
H          H       0.91260   0.05718   0.44107   0.10505
H          H       0.58665   0.55370   0.55197   0.10542
H          H       0.41474   0.55560   0.45432   0.10478
H          H       0.00594   0.94309   0.57941   0.10512
H          H       0.99208   0.94435   0.40955   0.10366
H          H       0.50580   0.44359   0.58140   0.10389
H          H       0.49412   0.44444   0.41837   0.10339
H          H       0.95531   0.90320   0.62324   0.11741
H          H       0.04398   0.90609   0.37036   0.11797
H          H       0.45502   0.40402   0.62459   0.11785
H          H       0.54533   0.40591   0.37551   0.11964
H          H       0.98536   0.01107   0.90096   0.11951
H          H       0.01558   0.00747   0.09346   0.11926
H          H       0.48610   0.50793   0.90537   0.11881
H          H       0.51404   0.50348   0.09609   0.11882
H          H       0.03399   0.05705   0.85148   0.11130
H          H       0.96552   0.05170   0.13835   0.11116
H          H       0.53473   0.55432   0.85623   0.11114
H          H       0.46481   0.54864   0.14468   0.11113
H          H       0.98897   0.08154   0.55397   0.09781
H          H       0.00902   0.08240   0.43708   0.09718
H          H       0.48913   0.58080   0.55511   0.09784
H          H       0.51109   0.58216   0.44154   0.09818
H          H       0.93590   0.13882   0.54513   0.11061
H          H       0.06279   0.13713   0.44755   0.10988
H          H       0.43623   0.63862   0.54690   0.10964
H          H       0.56407   0.63784   0.44461   0.11018
H          H       0.98499   0.27020   0.78493   0.11269
H          H       0.01570   0.26438   0.20883   0.11130
H          H       0.48531   0.76748   0.78982   0.11262
H          H       0.51352   0.76362   0.20802   0.11205
H          H       0.03852   0.21640   0.78874   0.09166
H          H       0.96154   0.21237   0.20216   0.09238
H          H       0.53890   0.71411   0.79213   0.09155
H          H       0.46021   0.71034   0.20851   0.09241
H          H       0.91956   0.26466   0.93388   0.12015
H          H       0.08094   0.26123   0.06446   0.12082
H          H       0.41913   0.75957   0.93566   0.11997
H          H       0.57942   0.76530   0.05712   0.12051
H          H       0.79840   0.27960   0.89728   0.11283
H          H       0.20221   0.27778   0.10361   0.11228
H          H       0.29848   0.78853   0.89683   0.11196
H          H       0.70085   0.78133   0.09803   0.11236
H          H       0.83787   0.27475   0.06380   0.12264
H          H       0.16289   0.27390   0.93658   0.12151
H          H       0.33751   0.78160   0.06379   0.12211
H          H       0.66160   0.78328   0.93097   0.12065
H          H       0.86915   0.27418   0.58299   0.12485
H          H       0.13043   0.27543   0.41573   0.12590
H          H       0.37011   0.77624   0.58467   0.12693
H          H       0.62906   0.76934   0.40886   0.12476
H          H       0.82854   0.32277   0.43881   0.05920
H          H       0.17173   0.32666   0.56466   0.06109
H          H       0.32954   0.82932   0.43943   0.05963
H          H       0.67180   0.81914   0.56264   0.05974
H          H       0.84479   0.37793   0.54093   0.07399
H          H       0.15589   0.37813   0.46116   0.07385
H          H       0.34505   0.88171   0.54534   0.07250
H          H       0.65485   0.87037   0.45976   0.07446
H          H       0.77411   0.38507   0.40478   0.11894
H          H       0.22574   0.38901   0.60318   0.11715
H          H       0.27483   0.89039   0.40637   0.11843
H          H       0.72601   0.88271   0.59211   0.11791
H          H       0.80710   0.43721   0.39375   0.12790
H          H       0.19268   0.44481   0.60153   0.12505
H          H       0.30800   0.94440   0.40256   0.12533
H          H       0.69307   0.93568   0.60201   0.12566
H          H       0.79219   0.44230   0.50224   0.12702
H          H       0.21030   0.43979   0.49853   0.12865
H          H       0.29199   0.94477   0.50881   0.12867
H          H       0.70735   0.93571   0.49272   0.12887
H          H       0.93235   0.22950   0.81410   0.07170
H          H       0.06815   0.22511   0.18144   0.06923
H          H       0.43181   0.72592   0.81608   0.07010
H          H       0.56603   0.72647   0.17484   0.07300
H          H       0.87170   0.05195   0.62589   0.12776
H          H       0.12888   0.05761   0.37592   0.12776
H          H       0.37270   0.55104   0.63247   0.12670
H          H       0.62880   0.55484   0.37524   0.12746
H          H       0.76332   0.95713   0.63989   0.10973
H          H       0.23715   0.96393   0.35766   0.10908
H          H       0.26410   0.45955   0.65027   0.10880
H          H       0.73687   0.45977   0.35737   0.10936
H          H       0.76572   0.05717   0.54151   0.11768
H          H       0.23490   0.06563   0.45869   0.11820
H          H       0.26677   0.55847   0.54995   0.11698
H          H       0.73480   0.56275   0.45585   0.11716
H          H       0.89849   0.86362   0.83990   0.12144
H          H       0.10199   0.86405   0.16026   0.11943
H          H       0.39906   0.36443   0.84887   0.12089
H          H       0.60140   0.36303   0.15579   0.12107
H          H       0.88555   0.82069   0.97587   0.07128
H          H       0.11364   0.81256   0.02636   0.07175
H          H       0.38845   0.32312   0.97922   0.07192
H          H       0.61319   0.31317   0.02289   0.07137
H          H       0.88622   0.76050   0.88132   0.07130
H          H       0.11440   0.75900   0.12662   0.07151
H          H       0.38489   0.25819   0.88815   0.06857
H          H       0.61424   0.25547   0.11853   0.07018
H          H       0.88237   0.70461   0.03703   0.13165
H          H       0.11759   0.69106   0.97707   0.13192
H          H       0.35009   0.26075   0.05718   0.13341
H          H       0.61725   0.19557   0.96114   0.13200
H          H       0.84620   0.68795   0.93956   0.13734
H          H       0.15516   0.68380   0.07186   0.13753
H          H       0.38477   0.21072   0.05211   0.13213
H          H       0.65429   0.18341   0.05618   0.13767
H          H       0.84495   0.74812   0.03319   0.13573
H          H       0.15339   0.73636   0.97000   0.13517
H          H       0.34569   0.19594   0.96616   0.13910
H          H       0.65366   0.24139   0.96154   0.13527
H          H       0.90984   0.98443   0.65809   0.07190
H          H       0.08973   0.99176   0.33751   0.07356
H          H       0.41012   0.48412   0.66483   0.07235
H          H       0.59018   0.48713   0.34005   0.07226
H          H       0.17467   0.70864   0.69182   0.12116
H          H       0.82498   0.70573   0.29682   0.12342
H          H       0.67444   0.20524   0.69193   0.12374
H          H       0.32557   0.20491   0.29839   0.12316
H          H       0.29427   0.67062   0.72153   0.11156
H          H       0.70627   0.66344   0.27651   0.11215
H          H       0.79381   0.16780   0.71706   0.11048
H          H       0.20682   0.16469   0.28025   0.11162
H          H       0.25707   0.57577   0.72716   0.11750
H          H       0.74425   0.56930   0.27230   0.11623
H          H       0.75651   0.07240   0.71858   0.11653
H          H       0.24421   0.07000   0.27405   0.11589
H          H       0.22224   0.92713   0.69261   0.12476
H          H       0.77582   0.92278   0.29620   0.12536
H          H       0.72269   0.42418   0.70821   0.12470
H          H       0.27767   0.42289   0.30091   0.12591
H          H       0.30205   0.00557   0.79050   0.08093
H          H       0.69640   0.00121   0.21981   0.08348
H          H       0.80215   0.50663   0.77661   0.08274
H          H       0.19809   0.50183   0.22693   0.08248
H          H       0.26289   0.97623   0.79704   0.06364
H          H       0.73447   0.97288   0.20234   0.06115
H          H       0.76451   0.47923   0.79775   0.06231
H          H       0.23660   0.47460   0.21078   0.06303
H          H       0.27999   0.03214   0.61253   0.13289
H          H       0.72107   0.02497   0.39694   0.12997
H          H       0.77553   0.51849   0.59686   0.12908
H          H       0.22223   0.52476   0.40505   0.12870
H          H       0.25486   0.07159   0.68115   0.13147
H          H       0.74854   0.05940   0.33341   0.12965
H          H       0.75276   0.56532   0.66553   0.12859
H          H       0.24860   0.56317   0.34139   0.12873
H          H       0.24079   0.99785   0.61003   0.13609
H          H       0.75810   0.98284   0.39495   0.13661
H          H       0.73727   0.48754   0.60997   0.13804
H          H       0.26022   0.48693   0.40212   0.13717
H          H       0.15836   0.80472   0.69491   0.06977
H          H       0.84059   0.80184   0.29546   0.06952
H          H       0.65869   0.30233   0.70522   0.06965
H          H       0.34244   0.30131   0.30534   0.06989
C          C       0.21961   0.42127   0.92689   0.14445
C          C       0.78050   0.42096   0.08284   0.14389
C          C       0.71951   0.92347   0.91656   0.14328
C          C       0.28185   0.92284   0.08557   0.14299
C          C       0.21002   0.36805   0.86143  -0.21209
C          C       0.79008   0.36753   0.14444  -0.21229
C          C       0.71030   0.86807   0.85524  -0.21035
C          C       0.29112   0.86941   0.14732  -0.21117
C          C       0.23125   0.34431   0.80465   0.04858
C          C       0.76896   0.34321   0.20026   0.04774
C          C       0.73135   0.84319   0.79858   0.04867
C          C       0.26976   0.84546   0.20254   0.04831
C          C       0.26254   0.37752   0.81563   0.03194
C          C       0.73789   0.37621   0.19251   0.03212
C          C       0.76215   0.87732   0.80569   0.03238
C          C       0.23870   0.87883   0.19450   0.03271
C          C       0.27125   0.43223   0.88397  -0.11577
C          C       0.72931   0.43139   0.12864  -0.11438
C          C       0.77045   0.93437   0.86969  -0.11429
C          C       0.23042   0.93394   0.13024  -0.11496
C          C       0.25033   0.45402   0.93904  -0.16055
C          C       0.75003   0.45368   0.07433  -0.16153
C          C       0.74968   0.95740   0.92446  -0.16159
C          C       0.25140   0.95576   0.07636  -0.16224
C          C       0.28389   0.35725   0.75704  -0.06000
C          C       0.71649   0.35526   0.24963  -0.05864
C          C       0.78349   0.85533   0.74794  -0.06055
C          C       0.21713   0.85816   0.25147  -0.05968
C          C       0.27495   0.30320   0.69060   0.21199
C          C       0.72511   0.30074   0.31164   0.21199
C          C       0.77501   0.79906   0.68575   0.21319
C          C       0.22576   0.80355   0.31366   0.21295
C          C       0.24557   0.26721   0.68504  -0.24038
C          C       0.75429   0.26499   0.31394  -0.24233
C          C       0.74603   0.76266   0.68372  -0.24035
C          C       0.25477   0.76739   0.31551  -0.24285
C          C       0.22333   0.28753   0.73824   0.02912
C          C       0.77658   0.28595   0.26215   0.03032
C          C       0.72385   0.78430   0.73637   0.03000
C          C       0.27723   0.78807   0.26424   0.03131
C          C       0.28452   0.24874   0.54458   0.07768
C          C       0.71538   0.24388   0.45227   0.08092
C          C       0.78484   0.73986   0.54360   0.08000
C          C       0.21483   0.74180   0.44916   0.08084
C          C       0.29292   0.17549   0.56222  -0.41851
C          C       0.70621   0.17109   0.42656  -0.42247
C          C       0.79456   0.66778   0.56690  -0.41710
C          C       0.20304   0.67149   0.41413  -0.42100
C          C       0.19264   0.24848   0.71872   0.08073
C          C       0.80707   0.24713   0.27862   0.07941
C          C       0.69341   0.74466   0.71987   0.08168
C          C       0.30761   0.74866   0.28209   0.08000
C          C       0.13696   0.22909   0.70764   0.19289
C          C       0.86235   0.22786   0.28503   0.19243
C          C       0.63767   0.72612   0.71031   0.19266
C          C       0.36299   0.72740   0.29064   0.19279
C          C       0.10624   0.24979   0.64746  -0.17227
C          C       0.89312   0.24880   0.34647  -0.17282
C          C       0.60735   0.74549   0.64622  -0.17380
C          C       0.39389   0.74947   0.35004  -0.17204
C          C       0.07818   0.20989   0.63524  -0.11823
C          C       0.92095   0.20888   0.35663  -0.11899
C          C       0.57907   0.70646   0.63523  -0.12014
C          C       0.42178   0.70943   0.36209  -0.11830
C          C       0.07947   0.14871   0.68415   0.05048
C          C       0.91936   0.14753   0.30441   0.05016
C          C       0.57980   0.64734   0.68867   0.05087
C          C       0.42016   0.64654   0.31378   0.05168
C          C       0.11028   0.12926   0.74576  -0.11138
C          C       0.88851   0.12787   0.24136  -0.11123
C          C       0.61013   0.62950   0.75446  -0.11141
C          C       0.38918   0.62573   0.25275  -0.11295
C          C       0.13855   0.16792   0.75638  -0.18826
C          C       0.86044   0.16663   0.23266  -0.18917
C          C       0.63863   0.66740   0.76444  -0.18769
C          C       0.36106   0.66461   0.24233  -0.18757
C          C       0.04938   0.10828   0.67730  -0.02550
C          C       0.94927   0.10685   0.31093  -0.02423
C          C       0.54968   0.60676   0.68099  -0.02364
C          C       0.45009   0.60581   0.32025  -0.02561
C          C       0.04965   0.03933   0.68034  -0.04333
C          C       0.94859   0.03784   0.30665  -0.04334
C          C       0.55019   0.53791   0.68493  -0.04495
C          C       0.44977   0.53677   0.31704  -0.04271
C          C       0.07675   0.99767   0.66449   0.06216
C          C       0.92110   0.99701   0.32075   0.06389
C          C       0.57764   0.49650   0.67118   0.06429
C          C       0.42275   0.49562   0.33316   0.06452
C          C       0.02248   0.00531   0.71042   0.06145
C          C       0.97612   0.00305   0.27842   0.05953
C          C       0.52284   0.50389   0.71410   0.06076
C          C       0.47694   0.50201   0.28664   0.05950
C          C       0.01792   0.14405   0.67276   0.06242
C          C       0.98106   0.14220   0.31760   0.06203
C          C       0.51815   0.64242   0.67540   0.06073
C          C       0.48152   0.64131   0.32358   0.06204
C          C       0.08793   0.94274   0.72570  -0.12775
C          C       0.90997   0.94040   0.25942  -0.12774
C          C       0.58832   0.44103   0.73175  -0.12973
C          C       0.41166   0.43871   0.27247  -0.13016
C          C       0.11640   0.90820   0.72179  -0.18278
C          C       0.88156   0.90573   0.26342  -0.18324
C          C       0.61672   0.40613   0.72827  -0.18194
C          C       0.38334   0.40423   0.27717  -0.18348
C          C       0.13455   0.92702   0.65487   0.19998
C          C       0.86340   0.92633   0.33040   0.20037
C          C       0.63525   0.42508   0.66247   0.19911
C          C       0.36522   0.42514   0.34404   0.20110
C          C       0.12210   0.97901   0.58892  -0.16161
C          C       0.87558   0.98064   0.39572  -0.16264
C          C       0.62349   0.47802   0.59768  -0.15853
C          C       0.37755   0.47931   0.40952  -0.16162
C          C       0.09366   0.01292   0.59282  -0.12506
C          C       0.90398   0.01454   0.39177  -0.12462
C          C       0.59511   0.51230   0.60113  -0.12617
C          C       0.40591   0.51310   0.40491  -0.12557
C          C       0.00114   0.95885   0.64908  -0.12928
C          C       0.99741   0.95883   0.34090  -0.12541
C          C       0.50118   0.45851   0.65166  -0.12679
C          C       0.49876   0.45833   0.34854  -0.12701
C          C       0.97279   0.93654   0.67326  -0.18593
C          C       0.02649   0.93752   0.31947  -0.18845
C          C       0.47281   0.43617   0.67572  -0.18691
C          C       0.52744   0.43676   0.32490  -0.18752
C          C       0.96634   0.95764   0.76275   0.20637
C          C       0.03374   0.95735   0.23168   0.20716
C          C       0.46678   0.45591   0.76632   0.20785
C          C       0.53370   0.45549   0.23523   0.20563
C          C       0.98982   0.99751   0.83008  -0.16957
C          C       0.01043   0.99478   0.16301  -0.16838
C          C       0.49045   0.49503   0.83415  -0.17044
C          C       0.50972   0.49198   0.16717  -0.16725
C          C       0.01692   0.02250   0.80254  -0.12382
C          C       0.98254   0.01877   0.18788  -0.12542
C          C       0.51751   0.52029   0.80673  -0.12351
C          C       0.48228   0.51646   0.19421  -0.12416
C          C       0.98835   0.12310   0.60425  -0.11904
C          C       0.01025   0.12221   0.38693  -0.11943
C          C       0.48861   0.62192   0.60627  -0.11967
C          C       0.51137   0.62185   0.39031  -0.11915
C          C       0.95846   0.15424   0.59966  -0.16843
C          C       0.04054   0.15213   0.39263  -0.16766
C          C       0.45879   0.65331   0.60199  -0.16786
C          C       0.54119   0.65229   0.39194  -0.16738
C          C       0.95643   0.20587   0.66738   0.20822
C          C       0.04333   0.20202   0.32599   0.20643
C          C       0.45678   0.70442   0.67051   0.20691
C          C       0.54276   0.70202   0.32377   0.20678
C          C       0.98588   0.22851   0.73472  -0.18821
C          C       0.01423   0.22389   0.25811  -0.18554
C          C       0.48620   0.72635   0.73869  -0.18753
C          C       0.51301   0.72334   0.25850  -0.18569
C          C       0.01607   0.19859   0.73591  -0.12261
C          C       0.98367   0.19500   0.25534  -0.12399
C          C       0.51637   0.69653   0.73936  -0.12152
C          C       0.48296   0.69387   0.25978  -0.12400
C          C       0.88086   0.27080   0.00592   0.14436
C          C       0.11978   0.26852   0.99346   0.14469
C          C       0.38044   0.77110   0.00671   0.14270
C          C       0.61838   0.77621   0.98713   0.14399
C          C       0.89300   0.26630   0.92365  -0.22834
C          C       0.10753   0.26309   0.07514  -0.22956
C          C       0.39265   0.76449   0.92481  -0.22787
C          C       0.60602   0.76773   0.06809  -0.22794
C          C       0.87107   0.26729   0.82747   0.04390
C          C       0.12934   0.26426   0.17157   0.04425
C          C       0.37100   0.76754   0.82837   0.04505
C          C       0.62781   0.76605   0.16453   0.04445
C          C       0.83621   0.27507   0.81769   0.03775
C          C       0.16426   0.27230   0.18248   0.03531
C          C       0.33628   0.77803   0.81799   0.03451
C          C       0.66279   0.77367   0.17605   0.03618
C          C       0.82479   0.27524   0.90467  -0.11344
C          C       0.17580   0.27300   0.09572  -0.11166
C          C       0.32472   0.78091   0.90467  -0.11112
C          C       0.67439   0.77718   0.08963  -0.11218
C          C       0.84655   0.27304   0.99735  -0.16060
C          C       0.15412   0.27125   0.00270  -0.16022
C          C       0.34624   0.77766   0.99758  -0.16040
C          C       0.65275   0.77873   0.99671  -0.16114
C          C       0.81410   0.28763   0.72349  -0.05733
C          C       0.18630   0.28476   0.27787  -0.05637
C          C       0.31443   0.79027   0.72326  -0.05373
C          C       0.68497   0.78310   0.27194  -0.05527
C          C       0.82704   0.29429   0.64200   0.19737
C          C       0.17312   0.29252   0.35914   0.19509
C          C       0.32767   0.79603   0.64219   0.19627
C          C       0.67195   0.78808   0.35376   0.19574
C          C       0.86022   0.27771   0.64901  -0.24223
C          C       0.13967   0.27698   0.35025  -0.24084
C          C       0.36089   0.77917   0.65026  -0.24157
C          C       0.63840   0.77311   0.34378  -0.24202
C          C       0.88225   0.26345   0.73922   0.02370
C          C       0.11788   0.26114   0.25927   0.02696
C          C       0.38248   0.76344   0.74060   0.02490
C          C       0.61640   0.76054   0.25198   0.02480
C          C       0.82193   0.35558   0.49405   0.08475
C          C       0.17856   0.35680   0.50860   0.08302
C          C       0.32248   0.85970   0.49642   0.08705
C          C       0.67791   0.84950   0.50567   0.08468
C          C       0.79742   0.40843   0.44594  -0.41324
C          C       0.20333   0.41094   0.55563  -0.40933
C          C       0.29784   0.91312   0.45105  -0.41174
C          C       0.70256   0.90427   0.55060  -0.41226
C          C       0.91572   0.24139   0.74183   0.07756
C          C       0.08444   0.23787   0.25470   0.07720
C          C       0.41576   0.73978   0.74390   0.07806
C          C       0.58284   0.73817   0.24778   0.07709
C          C       0.81919   0.05860   0.57763   0.14202
C          C       0.18144   0.06549   0.42387   0.13986
C          C       0.32021   0.55882   0.58507   0.14062
C          C       0.68134   0.56276   0.42190   0.13873
C          C       0.84840   0.02925   0.62814  -0.21778
C          C       0.15217   0.03519   0.37271  -0.21642
C          C       0.34931   0.52922   0.63574  -0.21617
C          C       0.65202   0.53214   0.37186  -0.21552
C          C       0.84782   0.97143   0.68478   0.04004
C          C       0.15265   0.97628   0.31482   0.04017
C          C       0.34857   0.47205   0.69347   0.03947
C          C       0.65239   0.47309   0.31411   0.03989
C          C       0.81646   0.94522   0.69076   0.03659
C          C       0.18402   0.94992   0.30831   0.03831
C          C       0.31718   0.44672   0.70061   0.03775
C          C       0.68367   0.44660   0.30742   0.03715
C          C       0.78709   0.97686   0.63620  -0.11130
C          C       0.21340   0.98323   0.36250  -0.11113
C          C       0.28792   0.47861   0.64593  -0.11291
C          C       0.71315   0.47962   0.36164  -0.11214
C          C       0.78824   0.03243   0.58093  -0.15807
C          C       0.21237   0.03980   0.41913  -0.15919
C          C       0.28921   0.53357   0.58956  -0.15657
C          C       0.71221   0.53673   0.41721  -0.15639
C          C       0.81518   0.88939   0.75063  -0.05518
C          C       0.18535   0.89215   0.24872  -0.05712
C          C       0.31576   0.39132   0.76130  -0.05559
C          C       0.68479   0.38923   0.24688  -0.05640
C          C       0.84467   0.86207   0.80751   0.20387
C          C       0.15577   0.86310   0.19243   0.20330
C          C       0.34524   0.36415   0.81856   0.20335
C          C       0.65524   0.36088   0.18921   0.20385
C          C       0.87539   0.88642   0.80026  -0.23874
C          C       0.12512   0.88788   0.19979  -0.23598
C          C       0.37597   0.38746   0.80970  -0.23887
C          C       0.62462   0.38594   0.19662  -0.23665
C          C       0.87731   0.93858   0.73806   0.03293
C          C       0.12315   0.94212   0.26134   0.02988
C          C       0.37796   0.43880   0.74627   0.03289
C          C       0.62283   0.43931   0.26006   0.03047
C          C       0.87106   0.78124   0.92783   0.07601
C          C       0.12885   0.77649   0.07682   0.07668
C          C       0.37210   0.28350   0.93776   0.07971
C          C       0.62855   0.27575   0.07021   0.07800
C          C       0.86042   0.72740   0.98783  -0.41302
C          C       0.13944   0.71860   0.02071  -0.41282
C          C       0.36246   0.23493   0.00720  -0.41360
C          C       0.63914   0.22087   0.00885  -0.41332
C          C       0.90959   0.95682   0.72477   0.08329
C          C       0.09062   0.96076   0.27274   0.08454
C          C       0.41010   0.45597   0.73121   0.08250
C          C       0.59052   0.45761   0.27344   0.08434
C          C       0.21378   0.63810   0.71043   0.14124
C          C       0.78675   0.63352   0.28434   0.14295
C          C       0.71336   0.13466   0.70569   0.14129
C          C       0.28694   0.13338   0.28527   0.14161
C          C       0.20094   0.70178   0.70010  -0.22735
C          C       0.79893   0.69794   0.29140  -0.23094
C          C       0.70069   0.19850   0.69955  -0.22797
C          C       0.29953   0.19754   0.29362  -0.22748
C          C       0.22191   0.75757   0.70109   0.03395
C          C       0.77758   0.75310   0.29087   0.03700
C          C       0.72184   0.25447   0.70383   0.03584
C          C       0.27856   0.25310   0.29466   0.03621
C          C       0.25654   0.74633   0.70914   0.03303
C          C       0.74319   0.74057   0.28517   0.03134
C          C       0.75634   0.24343   0.70995   0.03239
C          C       0.24413   0.24126   0.28899   0.03182
C          C       0.26829   0.67946   0.71668  -0.11072
C          C       0.73209   0.67311   0.27982  -0.10893
C          C       0.76792   0.17650   0.71361  -0.11041
C          C       0.23261   0.17405   0.28283  -0.10885
C          C       0.24763   0.62636   0.71905  -0.16328
C          C       0.75314   0.62049   0.27809  -0.16477
C          C       0.74718   0.12310   0.71348  -0.16547
C          C       0.25333   0.12103   0.27987  -0.16430
C          C       0.27855   0.80102   0.71183  -0.05526
C          C       0.72081   0.79449   0.28276  -0.05261
C          C       0.77832   0.29829   0.71372  -0.05560
C          C       0.22213   0.29564   0.28827  -0.05372
C          C       0.26629   0.86608   0.70889   0.21197
C          C       0.73238   0.86008   0.28396   0.21102
C          C       0.76624   0.36336   0.71422   0.21168
C          C       0.23407   0.36099   0.29015   0.21135
C          C       0.23241   0.87711   0.69780  -0.23505
C          C       0.76604   0.87239   0.29255  -0.23687
C          C       0.73267   0.37424   0.70804  -0.23550
C          C       0.26769   0.37269   0.29771  -0.23838
C          C       0.21011   0.82493   0.69307   0.02477
C          C       0.78872   0.82105   0.29700   0.02400
C          C       0.71030   0.32189   0.70087   0.02292
C          C       0.29013   0.32083   0.30238   0.02496
C          C       0.27897   0.98210   0.74732   0.07539
C          C       0.71956   0.97611   0.25592   0.07462
C          C       0.77874   0.48072   0.74234   0.07501
C          C       0.22142   0.47755   0.26368   0.07388
C          C       0.26268   0.02300   0.65745  -0.42808
C          C       0.73779   0.01266   0.35085  -0.42779
C          C       0.75992   0.51465   0.64818  -0.42642
C          C       0.23910   0.51495   0.35850  -0.42845
C          C       0.17538   0.84272   0.68109   0.07204
C          C       0.82324   0.84015   0.30745   0.07182
C          C       0.67567   0.33991   0.68995   0.07062
C          C       0.32488   0.33944   0.31658   0.07010
N          N       0.16444   0.27197   0.72445  -0.27354
N          N       0.83504   0.27045   0.27104  -0.27074
N          N       0.66526   0.76851   0.72516  -0.27117
N          N       0.33579   0.77055   0.27407  -0.27215
N          N       0.92490   0.23135   0.66164  -0.27898
N          N       0.07504   0.22745   0.33390  -0.27856
N          N       0.42535   0.73062   0.66425  -0.27688
N          N       0.57415   0.72741   0.32805  -0.27866
N          N       0.93701   0.94082   0.78718  -0.28004
N          N       0.06365   0.94095   0.21015  -0.27776
N          N       0.43766   0.43884   0.79183  -0.28003
N          N       0.56320   0.43919   0.21110  -0.28037
N          N       0.16565   0.90255   0.65507  -0.27336
N          N       0.83248   0.90127   0.33083  -0.27220
N          N       0.66614   0.39962   0.66255  -0.27535
N          N       0.33416   0.40020   0.34292  -0.27306
Cl         Cl      0.19335   0.44882   0.99746  -0.09313
Cl         Cl      0.80653   0.44943   0.01336  -0.09283
Cl         Cl      0.69343   0.95255   0.98681  -0.09218
Cl         Cl      0.30808   0.95072   0.01633  -0.09242
Cl         Cl      0.90817   0.27725   0.12312  -0.07000
Cl         Cl      0.09265   0.27603   0.87661  -0.06947
Cl         Cl      0.40756   0.77462   0.12440  -0.07014
Cl         Cl      0.59138   0.78721   0.87078  -0.06867
Cl         Cl      0.82001   0.13001   0.50881  -0.07549
Cl         Cl      0.18067   0.13779   0.49491  -0.07181
Cl         Cl      0.32132   0.62913   0.51436  -0.07554
Cl         Cl      0.68080   0.63599   0.49127  -0.07156
Cl         Cl      0.18806   0.57012   0.71359  -0.09177
Cl         Cl      0.81299   0.56605   0.28293  -0.09135
Cl         Cl      0.68747   0.06621   0.70421  -0.09185
Cl         Cl      0.31272   0.06549   0.28113  -0.09012
O          O       0.29613   0.28925   0.63413  -0.20410
O          O       0.70393   0.28616   0.36721  -0.20234
O          O       0.79630   0.78320   0.63023  -0.20536
O          O       0.20480   0.78939   0.37020  -0.20231
O          O       0.80630   0.31622   0.55587  -0.21660
O          O       0.19377   0.31374   0.44752  -0.22077
O          O       0.30709   0.81682   0.55500  -0.22118
O          O       0.69275   0.80677   0.44329  -0.22329
O          O       0.84135   0.80992   0.86554  -0.20047
O          O       0.15877   0.80926   0.13419  -0.20174
O          O       0.34206   0.31324   0.87894  -0.20154
O          O       0.65841   0.30734   0.13029  -0.20238
O          O       0.28897   0.91670   0.72000  -0.20226
O          O       0.70923   0.90952   0.27364  -0.20114
O          O       0.78886   0.41375   0.72302  -0.19990
O          O       0.21128   0.41082   0.28191  -0.19989

