data_crystal

_audit_creation_method 'AiiDA-DDEC plugin'

_cell_length_a        30.07055
_cell_length_b        29.90286
_cell_length_c         7.23626

_cell_angle_alpha     107.08146
_cell_angle_beta     110.28133
_cell_angle_gamma     119.55637

_symmetry_space_group_name_Hall 'P 1'
_symmetry_space_group_name_H-M  'P 1'

loop_
_symmetry_equiv_pos_as_xyz
 'x,y,z'

loop_
_atom_site_label
_atom_site_type_symbol
_atom_site_fract_x
_atom_site_fract_y
_atom_site_fract_z
_atom_site_charge
H          H       0.67781   0.21479   0.24450   0.10877
H          H       0.78150   0.46101   0.27400   0.10522
H          H       0.53106   0.31213   0.20915   0.10786
H          H       0.32630   0.78864   0.78768   0.10781
H          H       0.21672   0.53645   0.71330   0.10673
H          H       0.46024   0.68167   0.73558   0.10726
H          H       0.68326   0.13596   0.18850   0.11188
H          H       0.86223   0.55229   0.34922   0.10928
H          H       0.43362   0.28367   0.11270   0.11033
H          H       0.32634   0.87126   0.88402   0.11137
H          H       0.14443   0.45302   0.70829   0.11202
H          H       0.53842   0.68921   0.69966   0.11231
H          H       0.89032   0.26524   0.31967   0.10756
H          H       0.73491   0.61297   0.16025   0.10789
H          H       0.39199   0.14084   0.37390   0.10718
H          H       0.10659   0.73401   0.63915   0.10672
H          H       0.24411   0.36319   0.65521   0.10494
H          H       0.64353   0.90249   0.88526   0.10568
H          H       0.73628   0.09478   0.17030   0.10833
H          H       0.90854   0.65059   0.36990   0.10763
H          H       0.33675   0.22727   0.09419   0.10924
H          H       0.27370   0.91348   0.89428   0.10920
H          H       0.10298   0.35849   0.70343   0.10771
H          H       0.63317   0.74566   0.70555   0.10757
H          H       0.83682   0.30598   0.33196   0.11353
H          H       0.68999   0.51682   0.15283   0.11316
H          H       0.48650   0.19420   0.38030   0.11296
H          H       0.16031   0.69351   0.63998   0.11101
H          H       0.28740   0.45882   0.67308   0.11221
H          H       0.54836   0.84637   0.87468   0.11075
H          H       0.66647   0.44186   0.21987   0.12243
H          H       0.55804   0.23099   0.30077   0.12075
H          H       0.77741   0.32908   0.28435   0.11990
H          H       0.32381   0.54812   0.70396   0.12116
H          H       0.45656   0.78586   0.80240   0.11970
H          H       0.22218   0.67209   0.72634   0.12034
H          H       0.97813   0.10141   0.19337   0.11049
H          H       0.88971   0.87172   0.26107   0.10650
H          H       0.13042   0.01105   0.26927   0.10516
H          H       0.01323   0.88994   0.76916   0.11144
H          H       0.12023   0.13472   0.80163   0.10526
H          H       0.86378   0.98263   0.70166   0.10476
H          H       0.95094   0.15860   0.10984   0.11279
H          H       0.83574   0.80452   0.34142   0.11077
H          H       0.20676   0.01795   0.22331   0.10949
H          H       0.04036   0.83084   0.84754   0.11325
H          H       0.19280   0.21783   0.80250   0.10801
H          H       0.76724   0.95515   0.61626   0.11079
H          H       0.81100   0.09812   0.36841   0.10543
H          H       0.90666   0.69043   0.15670   0.10835
H          H       0.29557   0.21945   0.30684   0.10663
H          H       0.19572   0.91047   0.66187   0.10916
H          H       0.06141   0.27407   0.63700   0.10194
H          H       0.73742   0.82211   0.92327   0.10848
H          H       0.89793   0.20082   0.11336   0.10863
H          H       0.80109   0.71509   0.37673   0.10841
H          H       0.29374   0.06846   0.18658   0.10472
H          H       0.10050   0.79656   0.86897   0.10763
H          H       0.22565   0.30225   0.74386   0.10466
H          H       0.67723   0.90564   0.64403   0.11080
H          H       0.86076   0.05360   0.35412   0.11442
H          H       0.94667   0.78285   0.14426   0.11001
H          H       0.20754   0.16783   0.33882   0.10840
H          H       0.13880   0.94746   0.65466   0.11325
H          H       0.03128   0.19292   0.71146   0.10795
H          H       0.82458   0.86810   0.88127   0.10741
H          H       0.97933   0.86782   0.15337   0.11985
H          H       0.12450   0.11383   0.32044   0.11646
H          H       0.90314   0.01422   0.31527   0.12071
H          H       0.01654   0.12849   0.81982   0.11882
H          H       0.88083   0.89056   0.72519   0.11811
H          H       0.10076   0.98897   0.71428   0.12215
C          C       0.72083   0.24460   0.25972  -0.08863
C          C       0.75146   0.47224   0.25383  -0.08294
C          C       0.52255   0.27639   0.24263  -0.08135
C          C       0.28210   0.75812   0.76570  -0.08648
C          C       0.24303   0.52155   0.70441  -0.08404
C          C       0.47791   0.72666   0.76555  -0.08122
C          C       0.73616   0.29686   0.27319  -0.20005
C          C       0.69877   0.43381   0.23702  -0.20183
C          C       0.56317   0.26649   0.27248  -0.20379
C          C       0.26474   0.70453   0.74335  -0.19848
C          C       0.29400   0.55843   0.70905  -0.19923
C          C       0.44345   0.74258   0.77931  -0.20358
C          C       0.75532   0.22363   0.25843   0.09632
C          C       0.77357   0.52780   0.25351   0.09532
C          C       0.46745   0.24317   0.24431   0.09200
C          C       0.24808   0.77978   0.76501   0.09468
C          C       0.21939   0.46419   0.69187   0.09649
C          C       0.53517   0.76278   0.78139   0.09561
C          C       0.81425   0.25938   0.29421  -0.12234
C          C       0.73797   0.54601   0.20162  -0.11725
C          C       0.45402   0.20167   0.31588  -0.12041
C          C       0.18568   0.74190   0.69858  -0.12227
C          C       0.24641   0.43697   0.67688  -0.12233
C          C       0.56630   0.82366   0.83518  -0.12193
C          C       0.84436   0.23625   0.28657  -0.13850
C          C       0.76334   0.60027   0.20752  -0.13541
C          C       0.40044   0.17119   0.31166  -0.13738
C          C       0.15549   0.76504   0.70000  -0.13835
C          C       0.22196   0.38255   0.66903  -0.13235
C          C       0.61991   0.85535   0.84031  -0.13872
C          C       0.81762   0.17680   0.24423   0.06415
C          C       0.82495   0.63903   0.26643   0.06394
C          C       0.35700   0.17980   0.23555   0.06392
C          C       0.18587   0.82705   0.76875   0.06296
C          C       0.16993   0.35234   0.68020   0.06317
C          C       0.64509   0.82792   0.79191   0.06682
C          C       0.75893   0.14136   0.20889  -0.13970
C          C       0.86041   0.62094   0.31865  -0.13788
C          C       0.36996   0.22077   0.16206  -0.13586
C          C       0.24816   0.86499   0.83535  -0.13803
C          C       0.14276   0.37941   0.69272  -0.13601
C          C       0.61499   0.76796   0.74536  -0.13582
C          C       0.72874   0.16439   0.21701  -0.12833
C          C       0.83477   0.56627   0.30973  -0.12903
C          C       0.42416   0.25203   0.16922  -0.12864
C          C       0.27813   0.84153   0.83164  -0.12837
C          C       0.16655   0.43340   0.69721  -0.12854
C          C       0.56133   0.73602   0.74010  -0.12552
C          C       0.69884   0.31471   0.26861   0.40932
C          C       0.68208   0.38036   0.24873   0.41341
C          C       0.61665   0.30080   0.26297   0.41233
C          C       0.30142   0.68581   0.74350   0.41059
C          C       0.31434   0.61585   0.72530   0.41102
C          C       0.38617   0.70317   0.76071   0.41342
C          C       0.94445   0.08118   0.23479  -0.08786
C          C       0.91086   0.85284   0.22166  -0.07579
C          C       0.14652   0.05507   0.29056  -0.07976
C          C       0.05074   0.91372   0.74810  -0.08847
C          C       0.09345   0.14943   0.80267  -0.07494
C          C       0.85271   0.94374   0.71599  -0.08138
C          C       0.93743   0.03818   0.28141  -0.18233
C          C       0.95508   0.88325   0.18639  -0.20929
C          C       0.11225   0.07130   0.30342  -0.20060
C          C       0.06311   0.96183   0.72978  -0.18163
C          C       0.04448   0.11580   0.81279  -0.20241
C          C       0.88953   0.92990   0.71987  -0.20644
C          C       0.91064   0.10315   0.23288   0.09215
C          C       0.89218   0.79964   0.23315   0.09753
C          C       0.20027   0.08889   0.28419   0.09677
C          C       0.08498   0.89235   0.75043   0.09292
C          C       0.11094   0.20001   0.77181   0.09868
C          C       0.80093   0.91327   0.73638   0.09375
C          C       0.86951   0.08584   0.30110  -0.12171
C          C       0.91348   0.76774   0.18980  -0.11901
C          C       0.22643   0.14595   0.30509  -0.11800
C          C       0.13001   0.91418   0.70128  -0.12396
C          C       0.07452   0.21735   0.72313  -0.11164
C          C       0.79144   0.87513   0.82321  -0.11316
C          C       0.84035   0.11010   0.30541  -0.14030
C          C       0.89237   0.71642   0.20274  -0.13734
C          C       0.27600   0.17495   0.28562  -0.13857
C          C       0.16283   0.89378   0.70802  -0.14138
C          C       0.09224   0.26410   0.68296  -0.13503
C          C       0.74245   0.84939   0.84762  -0.14003
C          C       0.84976   0.15227   0.23932   0.05801
C          C       0.85019   0.69536   0.26517   0.06207
C          C       0.30227   0.14828   0.24454   0.06230
C          C       0.15251   0.85018   0.76589   0.06226
C          C       0.14789   0.29790   0.69556   0.06312
C          C       0.69975   0.85924   0.78222   0.05981
C          C       0.89043   0.16921   0.16921  -0.14179
C          C       0.83154   0.72914   0.31969  -0.13963
C          C       0.27586   0.09124   0.22307  -0.13732
C          C       0.10803   0.82876   0.81735  -0.14506
C          C       0.18302   0.27902   0.73690  -0.13873
C          C       0.70994   0.89805   0.69911  -0.13893
C          C       0.92013   0.14529   0.16653  -0.12844
C          C       0.85138   0.77955   0.30165  -0.11859
C          C       0.22645   0.06233   0.24304  -0.12374
C          C       0.07466   0.84872   0.80821  -0.13001
C          C       0.16472   0.23134   0.77193  -0.12527
C          C       0.75969   0.92493   0.67928  -0.12695
C          C       0.97148   0.01700   0.27071   0.40497
C          C       0.97908   0.94277   0.22088   0.40567
C          C       0.05418   0.03189   0.27802   0.40923
C          C       0.02909   0.98292   0.74271   0.40560
C          C       0.02140   0.05708   0.78796   0.40824
C          C       0.94617   0.96806   0.73356   0.40816
N          N       0.64841   0.28071   0.27062  -0.43319
N          N       0.71862   0.36559   0.26350  -0.43219
N          N       0.63061   0.34932   0.24647  -0.42918
N          N       0.35507   0.72367   0.76421  -0.43287
N          N       0.27883   0.63152   0.72268  -0.43276
N          N       0.36795   0.64967   0.74244  -0.42862
N          N       0.02435   0.05349   0.28671  -0.41642
N          N       0.94753   0.96194   0.24277  -0.42359
N          N       0.03305   0.97606   0.24090  -0.42143
N          N       0.97544   0.94586   0.72245  -0.42030
N          N       0.05412   0.03874   0.77555  -0.42265
N          N       0.96696   0.02323   0.76491  -0.42691

