data_crystal

_audit_creation_method 'AiiDA-DDEC plugin'

_cell_length_a        37.51950
_cell_length_b        37.47402
_cell_length_c         8.15695

_cell_angle_alpha     89.31034
_cell_angle_beta     90.04460
_cell_angle_gamma     120.36288

_symmetry_space_group_name_Hall 'P 1'
_symmetry_space_group_name_H-M  'P 1'

loop_
_symmetry_equiv_pos_as_xyz
 'x,y,z'

loop_
_atom_site_label
_atom_site_type_symbol
_atom_site_fract_x
_atom_site_fract_y
_atom_site_fract_z
_atom_site_charge
H          H       0.28497   0.69172   0.17654   0.11052
H          H       0.30615   0.58897   0.18888   0.11118
H          H       0.40896   0.71373   0.21635   0.11097
H          H       0.36998   0.82110   0.05868   0.10852
H          H       0.17603   0.54699   0.03470   0.10769
H          H       0.45545   0.63226   0.07429   0.10863
H          H       0.34059   0.76120   0.19892   0.06566
H          H       0.23539   0.57570   0.17820   0.06551
H          H       0.42239   0.65802   0.22550   0.06475
H          H       0.39821   0.89649   0.07276   0.10947
H          H       0.10052   0.50104   0.05502   0.10843
H          H       0.50176   0.60350   0.08137   0.10932
H          H       0.49766   0.90870   0.37234   0.08928
H          H       0.09154   0.59075   0.34528   0.08864
H          H       0.41122   0.49847   0.35720   0.08724
H          H       0.46902   0.83236   0.35927   0.11832
H          H       0.16791   0.63714   0.32672   0.11812
H          H       0.36386   0.52693   0.34789   0.11712
H          H       0.46991   0.07518   0.34461   0.13006
H          H       0.93003   0.38690   0.26871   0.12821
H          H       0.60742   0.52829   0.31581   0.13056
H          H       0.39115   0.92021   0.33164   0.12231
H          H       0.07890   0.47433   0.32555   0.12247
H          H       0.52905   0.60362   0.34499   0.12083
H          H       0.38601   0.96299   0.27092   0.12484
H          H       0.03892   0.42625   0.25467   0.12379
H          H       0.57717   0.61253   0.26891   0.12359
H          H       0.69255   0.28349   0.22201   0.11108
H          H       0.71572   0.40846   0.20458   0.11199
H          H       0.59070   0.30580   0.19864   0.11144
H          H       0.63397   0.16408   0.36729   0.12103
H          H       0.83457   0.46910   0.36970   0.12110
H          H       0.53059   0.36447   0.34480   0.12043
H          H       0.57662   0.23565   0.21719   0.06365
H          H       0.76234   0.33946   0.23204   0.06428
H          H       0.65997   0.42226   0.20001   0.06447
H          H       0.58644   0.08804   0.37937   0.10883
H          H       0.91077   0.49884   0.37488   0.10866
H          H       0.50256   0.41210   0.35411   0.10848
H          H       0.49942   0.10205   0.08160   0.10132
H          H       0.89660   0.39691   0.08768   0.09841
H          H       0.60444   0.50006   0.05447   0.10229
H          H       0.54642   0.17748   0.07194   0.10796
H          H       0.82136   0.36779   0.08225   0.10672
H          H       0.63246   0.45309   0.04850   0.10735
H          H       0.40427   0.96142   0.46882   0.12792
H          H       0.03674   0.44193   0.45647   0.13062
H          H       0.55957   0.58949   0.46480   0.12590
H          H       0.53102   0.93733   0.09995   0.28147
H          H       0.06138   0.59420   0.07193   0.28043
H          H       0.40654   0.46792   0.08786   0.27927
H          H       0.43690   0.03058   0.46492   0.12505
H          H       0.94334   0.40774   0.46698   0.13142
H          H       0.59548   0.55817   0.44821   0.12513
H          H       0.42294   0.03559   0.26221   0.12050
H          H       0.97629   0.39522   0.35916   0.12415
H          H       0.61406   0.57631   0.24728   0.12114
H          H       0.63685   0.03517   0.48355   0.17330
H          H       0.00275   0.63423   0.56839   0.13966
H          H       0.39723   0.36532   0.45888   0.17149
H          H       0.60340   0.98893   0.37720   0.13662
H          H       0.97013   0.60054   0.41277   0.17142
H          H       0.38288   0.39858   0.35872   0.13731
H          H       0.61802   0.98200   0.06415   0.13220
H          H       0.98956   0.62510   0.06918   0.14462
H          H       0.38247   0.36250   0.04603   0.15353
H          H       0.28460   0.69215   0.68562   0.11007
H          H       0.30691   0.59014   0.68638   0.11143
H          H       0.40917   0.71520   0.71453   0.11041
H          H       0.36910   0.82293   0.56796   0.10835
H          H       0.17596   0.54536   0.54947   0.10843
H          H       0.45585   0.63363   0.58030   0.10720
H          H       0.34012   0.76190   0.70832   0.06515
H          H       0.23631   0.57619   0.68779   0.06566
H          H       0.42277   0.65934   0.72999   0.06509
H          H       0.39863   0.89833   0.57961   0.10841
H          H       0.10037   0.50027   0.56816   0.10849
H          H       0.50135   0.60396   0.58249   0.11006
H          H       0.49936   0.90946   0.86792   0.08941
H          H       0.09203   0.59297   0.84029   0.08925
H          H       0.41061   0.49922   0.85955   0.09021
H          H       0.46983   0.83329   0.85483   0.11806
H          H       0.16835   0.63895   0.81882   0.11829
H          H       0.36378   0.52831   0.85219   0.11748
H          H       0.47499   0.07825   0.84392   0.13097
H          H       0.92205   0.39812   0.85242   0.12817
H          H       0.60472   0.52603   0.81698   0.13098
H          H       0.39373   0.92339   0.83285   0.12108
H          H       0.07624   0.47158   0.82058   0.12110
H          H       0.52821   0.60329   0.84246   0.12108
H          H       0.38946   0.96678   0.77460   0.12514
H          H       0.03249   0.42419   0.76346   0.12449
H          H       0.57588   0.61217   0.76122   0.12409
H          H       0.69413   0.28693   0.73074   0.11152
H          H       0.71526   0.41104   0.71809   0.11103
H          H       0.59100   0.30724   0.70096   0.11159
H          H       0.63603   0.16718   0.87783   0.12059
H          H       0.83481   0.47261   0.88586   0.12065
H          H       0.53025   0.36532   0.85267   0.12031
H          H       0.57780   0.23707   0.71719   0.06378
H          H       0.76372   0.34399   0.73872   0.06388
H          H       0.65843   0.42372   0.71236   0.06463
H          H       0.58977   0.09069   0.88487   0.10908
H          H       0.91098   0.50168   0.89100   0.10681
H          H       0.50147   0.41239   0.85823   0.10771
H          H       0.50380   0.10337   0.57520   0.10143
H          H       0.89622   0.40215   0.58637   0.09678
H          H       0.60133   0.49880   0.54754   0.10101
H          H       0.54960   0.17905   0.56944   0.10587
H          H       0.82114   0.37318   0.58399   0.10684
H          H       0.63000   0.45241   0.54430   0.10635
H          H       0.40837   0.96477   0.97088   0.12781
H          H       0.03484   0.44369   0.96130   0.12680
H          H       0.55958   0.58955   0.95856   0.12727
H          H       0.53227   0.93786   0.59674   0.28181
H          H       0.06319   0.59568   0.57060   0.28009
H          H       0.40468   0.46798   0.58730   0.28238
H          H       0.44141   0.03395   0.96401   0.12412
H          H       0.96635   0.40952   0.97022   0.12601
H          H       0.59359   0.55721   0.94519   0.12469
H          H       0.42755   0.03953   0.76179   0.12030
H          H       0.96103   0.39008   0.76935   0.12163
H          H       0.61304   0.57449   0.74445   0.12104
H          H       0.63643   0.03455   0.00419   0.17074
H          H       0.97135   0.59553   0.88721   0.17046
H          H       0.40259   0.38554   0.85141   0.16205
H          H       0.60280   0.99377   0.87335   0.13923
H          H       0.02546   0.62783   0.91955   0.13252
H          H       0.36794   0.39689   0.95681   0.13069
H          H       0.62286   0.98600   0.57292   0.13350
H          H       0.02487   0.62599   0.39032   0.13421
H          H       0.36293   0.37838   0.55771   0.13408
C          C       0.39687   0.83988   0.13429  -0.17422
C          C       0.15787   0.55610   0.10840  -0.17522
C          C       0.44601   0.60347   0.14105  -0.17697
C          C       0.30658   0.68042   0.18270  -0.14078
C          C       0.31767   0.62210   0.18924  -0.14009
C          C       0.37598   0.69199   0.20479  -0.14138
C          C       0.34903   0.70783   0.19494   0.06201
C          C       0.29052   0.63736   0.18100   0.06155
C          C       0.36067   0.64936   0.20131   0.06076
C          C       0.36437   0.75222   0.20135   0.07343
C          C       0.24580   0.60893   0.17865   0.07233
C          C       0.38965   0.63410   0.21256   0.07338
C          C       0.41677   0.82132   0.21475   0.19452
C          C       0.17756   0.59478   0.18569   0.19689
C          C       0.40655   0.58199   0.21476   0.19736
C          C       0.41293   0.88244   0.14129  -0.12204
C          C       0.11521   0.53023   0.11923  -0.12134
C          C       0.47212   0.58711   0.14433  -0.12005
C          C       0.44934   0.90817   0.22805   0.08483
C          C       0.09026   0.54179   0.20563   0.08590
C          C       0.46031   0.54891   0.22174   0.08821
C          C       0.46941   0.88932   0.30510  -0.14514
C          C       0.11016   0.58112   0.27774  -0.14542
C          C       0.42078   0.52778   0.29499  -0.14719
C          C       0.45379   0.84693   0.29786  -0.15858
C          C       0.15274   0.60722   0.26749  -0.15995
C          C       0.39423   0.54349   0.29018  -0.16060
C          C       0.46873   0.95377   0.23014  -0.08870
C          C       0.04471   0.51569   0.21468  -0.08878
C          C       0.48618   0.52936   0.21828  -0.08730
C          C       0.51027   0.97779   0.18226   0.08596
C          C       0.02091   0.53315   0.16694   0.08461
C          C       0.46863   0.48867   0.16235   0.08613
C          C       0.47156   0.02031   0.27863   0.04669
C          C       0.97829   0.45167   0.27510   0.05024
C          C       0.55022   0.52646   0.25918   0.04709
C          C       0.40541   0.95381   0.33969  -0.41642
C          C       0.04549   0.45312   0.32944  -0.41998
C          C       0.54943   0.59072   0.33925  -0.41610
C          C       0.60430   0.15014   0.30572  -0.14895
C          C       0.84866   0.45365   0.30832  -0.14897
C          C       0.54637   0.39423   0.28124  -0.14918
C          C       0.68158   0.30539   0.21434  -0.13904
C          C       0.69376   0.37534   0.20485  -0.13995
C          C       0.62375   0.31710   0.20125  -0.13950
C          C       0.63866   0.28967   0.20838   0.06034
C          C       0.70922   0.34801   0.21331   0.06142
C          C       0.65124   0.36020   0.19957   0.06163
C          C       0.60958   0.24510   0.21463   0.07343
C          C       0.75352   0.36336   0.22432   0.07268
C          C       0.63605   0.38928   0.19835   0.07269
C          C       0.59309   0.17618   0.22364   0.19981
C          C       0.82263   0.41605   0.23002   0.19752
C          C       0.58376   0.40575   0.19989   0.19874
C          C       0.57772   0.10759   0.31145  -0.10371
C          C       0.89119   0.47010   0.31089  -0.10226
C          C       0.53070   0.42080   0.28523  -0.10243
C          C       0.53916   0.08938   0.23284   0.07228
C          C       0.90934   0.44973   0.23359   0.07667
C          C       0.55136   0.45957   0.20469   0.07505
C          C       0.52816   0.11544   0.14954  -0.12669
C          C       0.88324   0.41229   0.15452  -0.12760
C          C       0.58856   0.47089   0.12211  -0.12760
C          C       0.55457   0.15814   0.14457  -0.18689
C          C       0.84062   0.39558   0.15205  -0.18412
C          C       0.60467   0.44454   0.11954  -0.18566
C          C       0.51348   0.04370   0.23069  -0.03161
C          C       0.95504   0.47015   0.22674  -0.03230
C          C       0.53162   0.48533   0.20426  -0.03127
C          C       0.53247   0.02137   0.18025   0.09664
C          C       0.97736   0.51152   0.17017   0.09724
C          C       0.49018   0.46693   0.15260   0.09683
C          C       0.44946   0.97611   0.27795   0.06019
C          C       0.02237   0.47399   0.26907   0.05915
C          C       0.52793   0.54808   0.26657   0.06073
C          C       0.44927   0.04164   0.34063  -0.41527
C          C       0.95602   0.40810   0.34507  -0.42071
C          C       0.59408   0.54834   0.32067  -0.41592
C          C       0.57416   0.00293   0.08166   0.38728
C          C       0.99594   0.57133   0.06051   0.39260
C          C       0.42972   0.42630   0.05164   0.38953
C          C       0.60983   0.00304   0.00214  -0.47414
C          C       0.99579   0.60711   0.97997  -0.47554
C          C       0.39351   0.39095   0.97249  -0.47646
C          C       0.39687   0.84153   0.63933  -0.17315
C          C       0.15787   0.55540   0.61846  -0.17381
C          C       0.44606   0.60455   0.64509  -0.17611
C          C       0.30649   0.68116   0.68787  -0.14036
C          C       0.31821   0.62323   0.68871  -0.14127
C          C       0.37619   0.69332   0.70425  -0.13989
C          C       0.34895   0.70887   0.69726   0.06110
C          C       0.29079   0.63816   0.68381   0.06106
C          C       0.36114   0.65075   0.70090   0.06097
C          C       0.36412   0.75325   0.70500   0.07381
C          C       0.24617   0.60930   0.68378   0.07229
C          C       0.39008   0.63551   0.71466   0.07253
C          C       0.41685   0.82254   0.71574   0.19426
C          C       0.17769   0.59485   0.68938   0.19621
C          C       0.40651   0.58309   0.71802   0.19708
C          C       0.41366   0.88423   0.64553  -0.12118
C          C       0.11515   0.52999   0.62849  -0.12094
C          C       0.47175   0.58772   0.64591  -0.11991
C          C       0.45088   0.90987   0.72778   0.08546
C          C       0.09030   0.54258   0.70930   0.08595
C          C       0.45954   0.54925   0.72157   0.08593
C          C       0.47074   0.89048   0.80221  -0.14618
C          C       0.11044   0.58253   0.77632  -0.14533
C          C       0.42027   0.52851   0.79698  -0.14894
C          C       0.45447   0.84797   0.79549  -0.15818
C          C       0.15301   0.60834   0.76521  -0.15905
C          C       0.39403   0.54458   0.79358  -0.16005
C          C       0.47101   0.95560   0.72880  -0.09010
C          C       0.04471   0.51719   0.71691  -0.08942
C          C       0.48489   0.52922   0.71546  -0.08931
C          C       0.51257   0.97912   0.67998   0.08560
C          C       0.02156   0.53541   0.66849   0.08325
C          C       0.46683   0.48843   0.65968   0.08741
C          C       0.47520   0.02281   0.77714   0.04952
C          C       0.97740   0.45443   0.77924   0.04888
C          C       0.54856   0.52574   0.75565   0.04715
C          C       0.40867   0.95704   0.84126  -0.41672
C          C       0.04262   0.45285   0.83173  -0.41587
C          C       0.54862   0.59047   0.83426  -0.41776
C          C       0.60698   0.15272   0.81165  -0.15033
C          C       0.84878   0.45754   0.82066  -0.15020
C          C       0.54526   0.39452   0.78515  -0.15103
C          C       0.68254   0.30831   0.72273  -0.14058
C          C       0.69362   0.37785   0.71540  -0.14014
C          C       0.62409   0.31889   0.70617  -0.14074
C          C       0.63949   0.29186   0.71458   0.06113
C          C       0.70964   0.35103   0.72285   0.06123
C          C       0.65107   0.36208   0.70741   0.06169
C          C       0.61092   0.24713   0.71899   0.07429
C          C       0.75409   0.36728   0.73317   0.07474
C          C       0.63518   0.39056   0.70638   0.07289
C          C       0.59566   0.17851   0.72802   0.19792
C          C       0.82268   0.42052   0.73871   0.19851
C          C       0.58229   0.40585   0.70155   0.19847
C          C       0.58107   0.11000   0.81493  -0.10344
C          C       0.89131   0.47384   0.82212  -0.10529
C          C       0.52916   0.42071   0.78700  -0.10509
C          C       0.54307   0.09140   0.73188   0.07396
C          C       0.90928   0.45399   0.73937   0.07347
C          C       0.54911   0.45885   0.70208   0.07365
C          C       0.53216   0.11718   0.64593  -0.12484
C          C       0.88307   0.41714   0.65707  -0.12655
C          C       0.58598   0.47002   0.61762  -0.12625
C          C       0.55784   0.16001   0.64365  -0.18418
C          C       0.84047   0.40049   0.65625  -0.18355
C          C       0.60250   0.44405   0.61690  -0.18570
C          C       0.51718   0.04567   0.72942  -0.02997
C          C       0.95488   0.47370   0.73173  -0.03160
C          C       0.52947   0.48459   0.70081  -0.02795
C          C       0.53545   0.02274   0.67825   0.09560
C          C       0.97805   0.51488   0.67298   0.09718
C          C       0.48808   0.46643   0.64940   0.09405
C          C       0.45245   0.97860   0.77682   0.06188
C          C       0.02148   0.47564   0.77139   0.06396
C          C       0.52670   0.54771   0.76278   0.06439
C          C       0.45371   0.04485   0.83966  -0.41673
C          C       0.95542   0.41070   0.84619  -0.41557
C          C       0.59231   0.54690   0.81849  -0.41705
C          C       0.57614   0.00332   0.57711   0.38739
C          C       0.99805   0.57461   0.55942   0.39008
C          C       0.42715   0.42571   0.55231   0.38536
C          C       0.61176   0.00307   0.49884  -0.47539
C          C      -0.00080   0.61099   0.47851  -0.47567
C          C       0.39032   0.39009   0.47805  -0.47611
N          N       0.53777   0.96670   0.12071  -0.35324
N          N       0.03209   0.57153   0.09832  -0.35309
N          N       0.42988   0.46184   0.09860  -0.35275
N          N       0.40322   0.77898   0.21301  -0.28479
N          N       0.22027   0.62244   0.18448  -0.28291
N          N       0.37763   0.59520   0.21080  -0.28242
N          N       0.57212   0.03609   0.11773  -0.39797
N          N       0.96281   0.53617   0.10380  -0.40004
N          N       0.46515   0.42831   0.08353  -0.39867
N          N       0.62195   0.21867   0.22100  -0.28002
N          N       0.78031   0.40236   0.22739  -0.27921
N          N       0.59713   0.37691   0.20116  -0.28067
N          N       0.53947   0.96741   0.61681  -0.35295
N          N       0.03365   0.57378   0.59773  -0.35095
N          N       0.42776   0.46154   0.59860  -0.35061
N          N       0.40303   0.78014   0.71244  -0.28395
N          N       0.22035   0.62247   0.68662  -0.28344
N          N       0.37784   0.59656   0.71326  -0.28108
N          N       0.57484   0.03682   0.61426  -0.40008
N          N       0.96437   0.54007   0.60446  -0.40602
N          N       0.46264   0.42759   0.58218  -0.40130
N          N       0.62388   0.22119   0.72850  -0.27980
N          N       0.78027   0.40644   0.73784  -0.27997
N          N       0.59614   0.37745   0.70447  -0.27770

