data_crystal

_audit_creation_method 'AiiDA-DDEC plugin'

_cell_length_a        37.36801
_cell_length_b        37.58687
_cell_length_c         8.12769

_cell_angle_alpha     90.42714
_cell_angle_beta     89.74171
_cell_angle_gamma     120.29336

_symmetry_space_group_name_Hall 'P 1'
_symmetry_space_group_name_H-M  'P 1'

loop_
_symmetry_equiv_pos_as_xyz
 'x,y,z'

loop_
_atom_site_label
_atom_site_type_symbol
_atom_site_fract_x
_atom_site_fract_y
_atom_site_fract_z
_atom_site_charge
H          H       0.28377   0.68987   0.00803   0.10990
H          H       0.31022   0.59082   0.00384   0.11045
H          H       0.41038   0.71699   0.00647   0.11055
H          H       0.36574   0.82238   0.37143   0.10759
H          H       0.17842   0.54483   0.36330   0.10777
H          H       0.45698   0.63608   0.36244   0.10881
H          H       0.33846   0.76276   0.51278   0.06542
H          H       0.23712   0.57657   0.51084   0.06458
H          H       0.42460   0.66333   0.51420   0.06571
H          H       0.39525   0.89761   0.38427   0.10877
H          H       0.10304   0.49652   0.37372   0.10938
H          H       0.50424   0.60828   0.36868   0.10922
H          H       0.49809   0.91035   0.16135   0.08833
H          H       0.09107   0.58941   0.15386   0.08862
H          H       0.41550   0.50332   0.14899   0.09002
H          H       0.47016   0.83458   0.14640   0.11822
H          H       0.16791   0.63532   0.14574   0.11826
H          H       0.36848   0.53229   0.13870   0.11650
H          H       0.46963   0.07595   0.15254   0.13192
H          H       0.92026   0.39600   0.12168   0.13080
H          H       0.60894   0.52737   0.12673   0.13252
H          H       0.39061   0.92169   0.14411   0.12190
H          H       0.07531   0.46996   0.13629   0.12142
H          H       0.53517   0.60772   0.14219   0.12050
H          H       0.38523   0.96422   0.08846   0.12494
H          H       0.03390   0.42240   0.06325   0.12503
H          H       0.58242   0.61456   0.06268   0.12452
H          H       0.68925   0.28278   0.49097   0.11189
H          H       0.71502   0.40813   0.48563   0.11129
H          H       0.58865   0.30769   0.50405   0.11172
H          H       0.63281   0.16477   0.16831   0.12149
H          H       0.83396   0.46895   0.15707   0.12116
H          H       0.53133   0.36692   0.16536   0.12128
H          H       0.57331   0.23718   0.51846   0.06471
H          H       0.76036   0.33827   0.49346   0.06497
H          H       0.66085   0.42367   0.50058   0.06355
H          H       0.58538   0.08879   0.18003   0.10856
H          H       0.91052   0.49868   0.16266   0.10914
H          H       0.50463   0.41574   0.17359   0.10840
H          H       0.49544   0.10031   0.38901   0.10059
H          H       0.89462   0.39284   0.36226   0.10185
H          H       0.60757   0.50410   0.36490   0.10070
H          H       0.54071   0.17574   0.37418   0.10775
H          H       0.81924   0.36520   0.35156   0.10626
H          H       0.63483   0.45665   0.35644   0.10870
H          H       0.40553   0.96352   0.28336   0.12817
H          H       0.03086   0.44086   0.26051   0.12700
H          H       0.56589   0.59395   0.26163   0.12828
H          H       0.06382   0.59031   0.38858   0.27738
H          H       0.40905   0.47509   0.39810   0.27869
H          H       0.53132   0.93891   0.38642   0.27811
H          H       0.44053   0.03340   0.28447   0.12457
H          H       0.96414   0.40385   0.23542   0.12321
H          H       0.59926   0.56051   0.25244   0.12518
H          H       0.42086   0.03473   0.08841   0.12111
H          H       0.95769   0.38669   0.02873   0.12069
H          H       0.61826   0.57529   0.04982   0.12198
H          H       0.40386   0.40691   0.30512   0.09181
H          H       0.00011   0.59456   0.29790   0.09128
H          H       0.59922   0.00430   0.30420   0.09210
H          H       0.28273   0.69196   0.50183   0.11101
H          H       0.30818   0.59215   0.49870   0.11103
H          H       0.40897   0.71802   0.50327   0.11046
H          H       0.36481   0.82011   0.87851   0.10720
H          H       0.17810   0.54295   0.87013   0.10826
H          H       0.46204   0.63729   0.87741   0.10851
H          H       0.33878   0.76070   0.02382   0.06538
H          H       0.23825   0.57487   0.01095   0.06589
H          H       0.42664   0.66306   0.01752   0.06634
H          H       0.39321   0.89523   0.88880   0.10856
H          H       0.10216   0.49751   0.87937   0.10959
H          H       0.50788   0.60801   0.88410   0.11113
H          H       0.49957   0.91065   0.65454   0.09119
H          H       0.08732   0.58324   0.66464   0.08740
H          H       0.41783   0.50840   0.67075   0.08605
H          H       0.46963   0.83442   0.64357   0.11825
H          H       0.16374   0.63213   0.65687   0.11787
H          H       0.36913   0.53539   0.65942   0.11815
H          H       0.46944   0.07555   0.65478   0.13145
H          H       0.95558   0.38213   0.51509   0.12210
H          H       0.61138   0.53353   0.61679   0.13176
H          H       0.39366   0.92139   0.64804   0.12162
H          H       0.07473   0.46648   0.63538   0.12258
H          H       0.53574   0.61198   0.63267   0.12229
H          H       0.38592   0.96248   0.59114   0.12495
H          H       0.03392   0.41889   0.55910   0.12674
H          H       0.58385   0.61750   0.57017   0.12457
H          H       0.69257   0.28345   0.00440   0.11140
H          H       0.71483   0.40760   0.99152   0.11186
H          H       0.58973   0.30500   0.01034   0.11177
H          H       0.63311   0.16766   0.65872   0.12158
H          H       0.83393   0.46851   0.63670   0.12248
H          H       0.53059   0.36871   0.64087   0.12236
H          H       0.57575   0.23578   0.02645   0.06377
H          H       0.76316   0.34038   0.00169   0.06429
H          H       0.65869   0.42101   0.00090   0.06324
H          H       0.58737   0.09149   0.67362   0.11050
H          H       0.91007   0.49681   0.64529   0.11169
H          H       0.50318   0.41677   0.65108   0.10924
H          H       0.49706   0.10093   0.88437   0.10093
H          H       0.89732   0.40022   0.84873   0.10050
H          H       0.60296   0.49688   0.84845   0.10103
H          H       0.54391   0.17625   0.87424   0.10747
H          H       0.82139   0.37012   0.84654   0.10600
H          H       0.62986   0.44895   0.84368   0.10792
H          H       0.40783   0.96346   0.78470   0.12792
H          H       0.03050   0.43596   0.75895   0.12752
H          H       0.56348   0.59718   0.76610   0.12723
H          H       0.06528   0.59490   0.89159   0.28146
H          H       0.40992   0.47266   0.88011   0.27606
H          H       0.52833   0.93670   0.88653   0.27752
H          H       0.43904   0.03182   0.77988   0.12555
H          H       0.91938   0.39068   0.62283   0.13005
H          H       0.59755   0.56037   0.76001   0.12551
H          H       0.42175   0.03460   0.58063   0.12109
H          H       0.96443   0.39725   0.72444   0.12564
H          H       0.61768   0.58209   0.56558   0.12063
H          H       0.40512   0.40481   0.78792   0.09098
H          H       0.00170   0.60019   0.80836   0.09100
H          H       0.59634   0.00149   0.80089   0.09158
C          C       0.39440   0.84137   0.43874  -0.17432
C          C       0.15878   0.55270   0.43563  -0.17584
C          C       0.44863   0.60860   0.43398  -0.17683
C          C       0.30658   0.67994   0.00584  -0.13983
C          C       0.32058   0.62360   0.00323  -0.13941
C          C       0.37742   0.69426   0.00513  -0.14222
C          C       0.34899   0.70850   0.00642   0.06185
C          C       0.29207   0.63729   0.00422   0.05997
C          C       0.36358   0.65208   0.00413   0.06098
C          C       0.36318   0.75254   0.01317   0.07390
C          C       0.24754   0.60770   0.00786   0.07191
C          C       0.39395   0.63842   0.00913   0.07225
C          C       0.41512   0.82193   0.01628   0.19603
C          C       0.17841   0.59190   0.01315   0.19695
C          C       0.41200   0.58705   0.01170   0.19572
C          C       0.41118   0.88388   0.44511  -0.11966
C          C       0.11614   0.52557   0.44048  -0.12230
C          C       0.47538   0.59287   0.43761  -0.12109
C          C       0.44748   0.90863   0.02899   0.08574
C          C       0.09081   0.53955   0.02078   0.08706
C          C       0.46553   0.55360   0.01902   0.08832
C          C       0.46888   0.89050   0.09910  -0.14530
C          C       0.11026   0.57913   0.09292  -0.14735
C          C       0.42559   0.53266   0.08913  -0.14781
C          C       0.45348   0.84829   0.09154  -0.15813
C          C       0.15300   0.60494   0.08851  -0.15854
C          C       0.39925   0.54862   0.08425  -0.15790
C          C       0.46708   0.95412   0.02946  -0.08864
C          C       0.04504   0.51447   0.01715  -0.09061
C          C       0.49064   0.53322   0.01520  -0.08927
C          C       0.51018   0.97916   0.47186   0.08289
C          C       0.02113   0.52847   0.46394   0.08497
C          C       0.47185   0.49529   0.46481   0.08239
C          C       0.47086   0.02094   0.08450   0.04674
C          C       0.97684   0.45134   0.05712   0.05027
C          C       0.55328   0.52799   0.06357   0.04988
C          C       0.40521   0.95521   0.15299  -0.41727
C          C       0.04157   0.45046   0.13356  -0.41857
C          C       0.55494   0.59404   0.13636  -0.41715
C          C       0.60306   0.15038   0.10580  -0.14825
C          C       0.84820   0.45406   0.09043  -0.14840
C          C       0.54678   0.39559   0.09686  -0.14887
C          C       0.67882   0.30512   0.48990  -0.14055
C          C       0.69244   0.37527   0.48710  -0.14101
C          C       0.62165   0.31828   0.49732  -0.13942
C          C       0.63584   0.29024   0.49611   0.06138
C          C       0.70720   0.34740   0.48687   0.06275
C          C       0.64996   0.36107   0.49258   0.06227
C          C       0.60617   0.24599   0.50763   0.07322
C          C       0.75166   0.36223   0.49038   0.07373
C          C       0.63602   0.39109   0.49744   0.07393
C          C       0.59156   0.17584   0.02330   0.19875
C          C       0.82231   0.41697   0.00607   0.19876
C          C       0.58293   0.40505   0.00852   0.19734
C          C       0.57666   0.10797   0.11116  -0.10339
C          C       0.89092   0.47070   0.09261  -0.10444
C          C       0.53184   0.42278   0.10017  -0.10315
C          C       0.53795   0.08938   0.03166   0.07294
C          C       0.90928   0.45122   0.00741   0.07309
C          C       0.55214   0.46000   0.01237   0.07193
C          C       0.52513   0.11499   0.45194  -0.12705
C          C       0.88147   0.40914   0.42575  -0.12595
C          C       0.59102   0.47493   0.42930  -0.12955
C          C       0.55050   0.15765   0.44474  -0.18563
C          C       0.83883   0.39322   0.42116  -0.18412
C          C       0.60666   0.44822   0.42551  -0.18408
C          C       0.51220   0.04383   0.02890  -0.02603
C          C       0.95499   0.47084   0.00592  -0.02720
C          C       0.53349   0.48668   0.00914  -0.02770
C          C       0.53205   0.02264   0.47044   0.08972
C          C       0.97751   0.50751   0.45497   0.09069
C          C       0.49259   0.47268   0.45483   0.09277
C          C       0.44860   0.97685   0.08403   0.06334
C          C       0.02108   0.47277   0.06350   0.06651
C          C       0.53221   0.55089   0.06670   0.06392
C          C       0.44940   0.04248   0.15562  -0.41599
C          C       0.95350   0.40720   0.11390  -0.41592
C          C       0.59723   0.54881   0.12639  -0.41779
C          C       0.57310   0.00435   0.36246   0.14658
C          C       0.99864   0.56782   0.35457   0.14827
C          C       0.43128   0.43270   0.35873   0.14264
C          C       0.39344   0.83961   0.94522  -0.17412
C          C       0.15934   0.55259   0.93875  -0.17372
C          C       0.45196   0.60847   0.94180  -0.17389
C          C       0.30524   0.68166   0.50023  -0.14107
C          C       0.31873   0.62498   0.49914  -0.13964
C          C       0.37595   0.69540   0.50099  -0.13920
C          C       0.34776   0.70993   0.50048   0.06085
C          C       0.29043   0.63896   0.50020   0.06085
C          C       0.36177   0.65317   0.50077   0.06086
C          C       0.36252   0.75408   0.50579   0.07254
C          C       0.24598   0.60926   0.50655   0.07420
C          C       0.39176   0.63904   0.50736   0.07425
C          C       0.41536   0.82307   0.51093   0.19678
C          C       0.17652   0.59142   0.51445   0.19647
C          C       0.40979   0.58789   0.51311   0.19560
C          C       0.40953   0.88208   0.95093  -0.12144
C          C       0.11645   0.52706   0.94296  -0.11946
C          C       0.47794   0.59187   0.94511  -0.12237
C          C       0.44928   0.90978   0.52340   0.08731
C          C       0.08947   0.53600   0.52287   0.08549
C          C       0.46486   0.55630   0.52196   0.08419
C          C       0.47010   0.89113   0.59348  -0.14939
C          C       0.10762   0.57491   0.60027  -0.14481
C          C       0.42610   0.53619   0.60189  -0.14444
C          C       0.45376   0.84878   0.58704  -0.15885
C          C       0.15006   0.60229   0.59554  -0.16074
C          C       0.39883   0.55109   0.59623  -0.15955
C          C       0.46906   0.95518   0.52622  -0.08810
C          C       0.04368   0.51015   0.51845  -0.08695
C          C       0.49054   0.53641   0.51881  -0.08573
C          C       0.50815   0.97766   0.97353   0.08346
C          C       0.02252   0.53293   0.96388   0.08216
C          C       0.47187   0.49223   0.95889   0.08359
C          C       0.47188   0.02131   0.58409   0.04691
C          C       0.97561   0.44656   0.55673   0.04644
C          C       0.55373   0.53175   0.56205   0.04744
C          C       0.40706   0.95480   0.65456  -0.41957
C          C       0.04102   0.44640   0.63243  -0.41796
C          C       0.55490   0.59758   0.63698  -0.41552
C          C       0.60286   0.15252   0.59976  -0.14831
C          C       0.84760   0.45230   0.57603  -0.14916
C          C       0.54699   0.39841   0.57987  -0.14686
C          C       0.68122   0.30504   0.00166  -0.13953
C          C       0.69290   0.37456   0.99432  -0.13953
C          C       0.62289   0.31634   0.00507  -0.14046
C          C       0.63804   0.28911   0.00667   0.06063
C          C       0.70870   0.34755  -0.00359   0.06023
C          C       0.65021   0.35925  -0.00118   0.06160
C          C       0.60868   0.24481   0.01738   0.07463
C          C       0.75341   0.36356  -0.00009   0.07411
C          C       0.63483   0.38811   0.00186   0.07499
C          C       0.58996   0.17709   0.51872   0.19886
C          C       0.82116   0.41452   0.49725   0.19994
C          C       0.58477   0.40940   0.50153   0.19846
C          C       0.57734   0.11000   0.60742  -0.10153
C          C       0.89016   0.46807   0.58026  -0.09903
C          C       0.53164   0.42524   0.58414  -0.10160
C          C       0.53813   0.09039   0.53166   0.07374
C          C       0.90797   0.44682   0.50454   0.07153
C          C       0.55324   0.46401   0.50773   0.07376
C          C       0.52635   0.11482   0.95009  -0.12809
C          C       0.88344   0.41455   0.92126  -0.12529
C          C       0.58794   0.46916   0.92265  -0.12585
C          C       0.55262   0.15740   0.94539  -0.18551
C          C       0.84061   0.39750   0.92034  -0.18467
C          C       0.60331   0.44225   0.92061  -0.18557
C          C       0.51324   0.04479   0.52920  -0.02630
C          C       0.95365   0.46599   0.50504  -0.02979
C          C       0.53424   0.49042   0.50695  -0.03066
C          C       0.53040   0.02113   0.97009   0.09006
C          C       0.97886   0.51226   0.95603   0.09209
C          C       0.49229   0.46930   0.95301   0.09154
C          C       0.45015   0.97729   0.58284   0.06485
C          C       0.01992   0.46842   0.56471   0.06286
C          C       0.53235   0.55442   0.56728   0.06274
C          C       0.44948   0.04205   0.65328  -0.41712
C          C       0.95253   0.40191   0.60820  -0.41371
C          C       0.59737   0.55288   0.62877  -0.41549
C          C       0.57062   0.00197   0.86088   0.14576
C          C       0.00010   0.57298   0.86064   0.14293
C          C       0.43200   0.43008   0.84703   0.14676
N          N       0.53730   0.96817   0.40278  -0.30037
N          N       0.03399   0.56729   0.40010  -0.29896
N          N       0.43246   0.46887   0.40323  -0.29768
N          N       0.40208   0.77988   0.01214  -0.28217
N          N       0.22100   0.62006   0.01185  -0.28307
N          N       0.38273   0.59987   0.00857  -0.28460
N          N       0.57119   0.03743   0.40101  -0.33580
N          N       0.96442   0.53289   0.38588  -0.33636
N          N       0.46648   0.43379   0.38714  -0.33588
N          N       0.62067   0.21811   0.01876  -0.27942
N          N       0.77965   0.40258   0.00596  -0.27935
N          N       0.59585   0.37591   0.00944  -0.27973
N          N       0.53479   0.96609   0.90385  -0.29981
N          N       0.03543   0.57198   0.90281  -0.30260
N          N       0.43310   0.46627   0.89080  -0.29926
N          N       0.40157   0.78089   0.50728  -0.28119
N          N       0.21884   0.62083   0.51193  -0.28290
N          N       0.38029   0.60043   0.50984  -0.28140
N          N       0.56925   0.03537   0.89873  -0.33801
N          N       0.96580   0.53804   0.89090  -0.33967
N          N       0.46663   0.43066   0.88242  -0.33666
N          N       0.61836   0.21946   0.51065  -0.27754
N          N       0.77872   0.40107   0.49534  -0.28053
N          N       0.59728   0.37996   0.50098  -0.28107

