data_crystal

_audit_creation_method 'AiiDA-DDEC plugin'

_cell_length_a        44.35286
_cell_length_b        44.48233
_cell_length_c         7.98494

_cell_angle_alpha     111.09337
_cell_angle_beta     97.72159
_cell_angle_gamma     119.56678

_symmetry_space_group_name_Hall 'P 1'
_symmetry_space_group_name_H-M  'P 1'

loop_
_symmetry_equiv_pos_as_xyz
 'x,y,z'

loop_
_atom_site_label
_atom_site_type_symbol
_atom_site_fract_x
_atom_site_fract_y
_atom_site_fract_z
_atom_site_charge
H          H       0.34629   0.76629   0.20649   0.10727
H          H       0.27090   0.60937   0.27135   0.10218
H          H       0.43207   0.68693   0.36112   0.11467
H          H       0.68143   0.27153   0.32196   0.11452
H          H       0.76893   0.43216   0.25559   0.10600
H          H       0.60309   0.35275   0.30936   0.10948
H          H       0.38668   0.83197   0.22306   0.11556
H          H       0.20598   0.57462   0.26858   0.11336
H          H       0.45238   0.64207   0.32664   0.11714
H          H       0.63773   0.20220   0.26354   0.11474
H          H       0.83113   0.45150   0.23427   0.11666
H          H       0.56883   0.38346   0.30795   0.11179
H          H       0.48058   0.82582   0.31925   0.10045
H          H       0.18812   0.64605   0.08355   0.10002
H          H       0.34218   0.55002   0.24272   0.10918
H          H       0.55171   0.22047   0.29296   0.10536
H          H       0.80967   0.34465   0.21824   0.09908
H          H       0.65543   0.47011   0.21223   0.10389
H          H       0.44020   0.75992   0.29750   0.10929
H          H       0.25291   0.68135   0.09038   0.10589
H          H       0.32124   0.59358   0.26605   0.11102
H          H       0.59468   0.28898   0.34785   0.11484
H          H       0.74826   0.32594   0.24573   0.11060
H          H       0.69021   0.44044   0.22042   0.10842
H          H       0.48862   0.88409   0.30887   0.05958
H          H       0.13845   0.59747   0.11095   0.05594
H          H       0.38964   0.53902   0.26018   0.06530
H          H       0.54062   0.16038   0.27127   0.06042
H          H       0.86774   0.38995   0.18814   0.06257
H          H       0.60119   0.46796   0.19716   0.06581
H          H       0.50912   0.92238   0.17346   0.10327
H          H       0.10161   0.59394   0.25010   0.10235
H          H       0.41484   0.51334   0.32906   0.10744
H          H       0.50193   0.09668   0.15711   0.10445
H          H       0.90396   0.40415   0.99338   0.10353
H          H       0.59558   0.51420   0.35687   0.10769
H          H       0.54002   0.98634   0.17931   0.10142
H          H       0.03841   0.56351   0.25704   0.10019
H          H       0.44460   0.47995   0.33818   0.09809
H          H       0.46936   0.03348   0.15844   0.09834
H          H       0.96790   0.43260   0.99125   0.10525
H          H       0.56384   0.54587   0.34274   0.10214
H          H       0.45275   0.99671   0.29663   0.09895
H          H       0.03181   0.45974   0.18565   0.10458
H          H       0.52981   0.55429   0.18392   0.10250
H          H       0.57446   0.04986   0.34814   0.10744
H          H       0.00664   0.54654   0.45109   0.09857
H          H       0.45931   0.44021   0.22152   0.10465
H          H       0.42122   0.93153   0.28668   0.11622
H          H       0.09566   0.49034   0.17634   0.11954
H          H       0.50079   0.58965   0.18739   0.11524
H          H       0.60684   0.11266   0.33647   0.11463
H          H       0.94228   0.51796   0.45256   0.12001
H          H       0.49206   0.40918   0.24463   0.11970
H          H       0.31840   0.73655   0.76087   0.10672
H          H       0.23503   0.56689   0.75817   0.10797
H          H       0.40333   0.65099   0.70118   0.10801
H          H       0.65923   0.23196   0.70732   0.11348
H          H       0.73938   0.41337   0.83769   0.10625
H          H       0.57605   0.32552   0.83478   0.10848
H          H       0.35453   0.79731   0.73026   0.11367
H          H       0.16773   0.53694   0.71495   0.11331
H          H       0.43665   0.62095   0.74590   0.11667
H          H       0.62660   0.16954   0.73088   0.11430
H          H       0.79926   0.44060   0.77880   0.11918
H          H       0.54771   0.35987   0.78397   0.11661
H          H       0.44756   0.78927   0.77877   0.09923
H          H       0.17403   0.62797   0.61306   0.10596
H          H       0.33962   0.53038   0.77065   0.10368
H          H       0.53834   0.18210   0.79917   0.10351
H          H       0.79337   0.33626   0.69478   0.10211
H          H       0.64548   0.43855   0.71301   0.11076
H          H       0.41187   0.72904   0.81018   0.10776
H          H       0.24173   0.65936   0.66824   0.10594
H          H       0.30581   0.55934   0.71828   0.11449
H          H       0.57029   0.24363   0.77091   0.11235
H          H       0.73450   0.30965   0.75873   0.10646
H          H       0.67479   0.40611   0.77684   0.10640
H          H       0.45680   0.84638   0.78852   0.05353
H          H       0.11646   0.57942   0.61093   0.05977
H          H       0.39482   0.53154   0.81787   0.06203
H          H       0.53586   0.12996   0.81574   0.05705
H          H       0.84647   0.38744   0.69775   0.05547
H          H       0.59160   0.44108   0.65816   0.06763
H          H       0.48249   0.88478   0.67730   0.09813
H          H       0.08308   0.58400   0.78163   0.10632
H          H       0.40287   0.48708   0.68040   0.10550
H          H       0.49537   0.06906   0.66802   0.10347
H          H       0.87953   0.40229   0.52379   0.09440
H          H       0.58299   0.48483   0.72302   0.10933
H          H       0.51997   0.94868   0.68580   0.09853
H          H       0.02149   0.56106   0.80839   0.10205
H          H       0.43262   0.45325   0.68384   0.10435
H          H       0.45896   0.00664   0.67309   0.10217
H          H       0.94309   0.42970   0.51877   0.10247
H          H       0.55340   0.51788   0.69902   0.09788
H          H       0.43987   0.97197   0.80839   0.10111
H          H       0.00140   0.45012   0.70973   0.10504
H          H       0.53845   0.55708   0.80235   0.10798
H          H       0.55873   0.01183   0.83223   0.10311
H          H       0.98430   0.54306   0.99487   0.10109
H          H       0.46434   0.44218   0.83069   0.10283
H          H       0.40126   0.90654   0.79016   0.11581
H          H       0.06397   0.47376   0.68875   0.11829
H          H       0.50773   0.59047   0.79081   0.12032
H          H       0.59524   0.07472   0.82380   0.11382
H          H       0.91986   0.51594   0.99192   0.12040
H          H       0.49313   0.40705   0.84062   0.11256
C          C       0.32320   0.69291   0.09760   0.00178
C          C       0.33052   0.66485   0.27129  -0.03605
C          C       0.37022   0.69925   0.29932  -0.04878
C          C       0.69695   0.34699   0.33619  -0.04131
C          C       0.69633   0.37905   0.16912  -0.00452
C          C       0.66535   0.35276   0.33953  -0.05058
C          C       0.36389   0.71896   0.21786  -0.02612
C          C       0.30365   0.66625   0.17522  -0.03875
C          C       0.36289   0.66749   0.32516   0.02493
C          C       0.66571   0.32416   0.36831   0.02444
C          C       0.71808   0.36781   0.25475  -0.03381
C          C       0.66888   0.37654   0.26029  -0.04679
C          C       0.38996   0.75779   0.24105   0.07673
C          C       0.26569   0.64623   0.17014   0.09013
C          C       0.37544   0.64310   0.31723   0.08361
C          C       0.64089   0.28475   0.33948   0.09010
C          C       0.75397   0.37728   0.24636   0.08262
C          C       0.64861   0.39396   0.26005   0.08518
C          C       0.37554   0.77919   0.22636  -0.11290
C          C       0.25231   0.61679   0.22719  -0.14444
C          C       0.41264   0.65682   0.33421  -0.12394
C          C       0.65292   0.25996   0.31480  -0.12390
C          C       0.77810   0.41313   0.24648  -0.11687
C          C       0.61445   0.37857   0.28902  -0.13229
C          C       0.39773   0.81556   0.23661  -0.09231
C          C       0.21647   0.59761   0.22744  -0.10499
C          C       0.42394   0.63217   0.31505  -0.10793
C          C       0.62882   0.22159   0.28181  -0.09868
C          C       0.81249   0.42401   0.23497  -0.09177
C          C       0.59536   0.39555   0.28837  -0.10969
C          C       0.43569   0.83245   0.26510   0.06652
C          C       0.19231   0.60717   0.17003   0.04858
C          C       0.39857   0.59322   0.28123   0.06513
C          C       0.59203   0.20677   0.27559   0.05150
C          C       0.82419   0.39924   0.22258   0.06079
C          C       0.60969   0.42863   0.25901   0.04476
C          C       0.45101   0.81255   0.29333  -0.14650
C          C       0.20629   0.63786   0.12292  -0.12452
C          C       0.36158   0.57974   0.26480  -0.13128
C          C       0.57997   0.23142   0.29661  -0.13112
C          C       0.80074   0.36392   0.22742  -0.13852
C          C       0.64405   0.44443   0.23371  -0.12130
C          C       0.42857   0.77578   0.28188  -0.12934
C          C       0.24237   0.65744   0.12492  -0.13172
C          C       0.34991   0.60410   0.28043  -0.12324
C          C       0.60392   0.26981   0.32821  -0.12138
C          C       0.76638   0.35331   0.24253  -0.12944
C          C       0.66345   0.42782   0.23740  -0.13232
C          C       0.45836   0.87034   0.26988   0.06089
C          C       0.15404   0.58717   0.15978   0.07466
C          C       0.41023   0.56724   0.26625   0.05760
C          C       0.56785   0.16816   0.26220   0.05748
C          C       0.86067   0.41127   0.21125   0.05875
C          C       0.59024   0.44676   0.25116   0.07367
C          C       0.46337   0.92302   0.23743   0.20592
C          C       0.10283   0.54357   0.20537   0.20530
C          C       0.45563   0.55409   0.25580   0.19772
C          C       0.55729   0.10982   0.25023   0.20576
C          C       0.91901   0.45910   0.22702   0.20715
C          C       0.54551   0.45843   0.29255   0.21050
C          C       0.49725   0.93912   0.20708  -0.17028
C          C       0.08637   0.56429   0.23304  -0.17793
C          C       0.43952   0.52199   0.29256  -0.16597
C          C       0.51816   0.08699   0.20238  -0.17338
C          C       0.92673   0.43508   0.09782  -0.18106
C          C       0.56552   0.49751   0.32279  -0.17639
C          C       0.51478   0.97541   0.21121  -0.12036
C          C       0.05087   0.54733   0.23943  -0.12908
C          C       0.45646   0.50293   0.29732  -0.12713
C          C       0.49974   0.05114   0.20327  -0.12493
C          C       0.96270   0.45116   0.09665  -0.12586
C          C       0.54745   0.51540   0.31487  -0.11889
C          C       0.49967   0.99750   0.24565   0.06250
C          C       0.03006   0.50909   0.21890   0.05733
C          C       0.48985   0.51440   0.26280   0.05848
C          C       0.51915   0.03622   0.25216   0.06143
C          C       0.99224   0.49161   0.22320   0.06063
C          C       0.50871   0.49535   0.27609   0.05354
C          C       0.46533   0.98066   0.27067  -0.12373
C          C       0.04678   0.48876   0.19505  -0.12475
C          C       0.50505   0.54562   0.21958  -0.13051
C          C       0.55827   0.05957   0.30271  -0.12049
C          C       0.98416   0.51537   0.35075  -0.12809
C          C       0.48920   0.45670   0.25142  -0.12338
C          C       0.44752   0.94428   0.26520  -0.15118
C          C       0.08253   0.50579   0.19077  -0.15490
C          C       0.48863   0.56526   0.21833  -0.14796
C          C       0.57671   0.09507   0.29959  -0.14546
C          C       0.94840   0.49967   0.35239  -0.15565
C          C       0.50723   0.43887   0.26196  -0.15081
C          C       0.31226   0.67911   0.88725  -0.00150
C          C       0.30058   0.61933   0.69206  -0.02886
C          C       0.34459   0.66200   0.72260  -0.02749
C          C       0.67258   0.30559   0.77311  -0.01261
C          C       0.68618   0.36663   0.96179  -0.00228
C          C       0.62905   0.30675   0.77340  -0.02009
C          C       0.34143   0.69237   0.80308  -0.02954
C          C       0.28291   0.63592   0.75785  -0.02078
C          C       0.33284   0.62402   0.67523  -0.01110
C          C       0.63588   0.27835   0.73502  -0.00417
C          C       0.69951   0.34481   0.84461  -0.03200
C          C       0.64571   0.34596   0.84566  -0.03087
C          C       0.36300   0.72911   0.79364   0.09290
C          C       0.24299   0.61569   0.72165   0.08505
C          C       0.35212   0.60657   0.70268   0.09148
C          C       0.61662   0.24141   0.73800   0.08726
C          C       0.73402   0.36055   0.81025   0.08626
C          C       0.62771   0.36451   0.81494   0.08665
C          C       0.34684   0.74839   0.76606  -0.12992
C          C       0.22136   0.57985   0.72474  -0.12266
C          C       0.38954   0.62444   0.71554  -0.12220
C          C       0.63272   0.22059   0.72715  -0.12260
C          C       0.75187   0.39711   0.80961  -0.13409
C          C       0.59102   0.35033   0.80854  -0.12813
C          C       0.36672   0.78200   0.74704  -0.09009
C          C       0.18411   0.56320   0.70104  -0.09451
C          C       0.40817   0.60799   0.74122  -0.10860
C          C       0.61489   0.18629   0.74053  -0.09753
C          C       0.78482   0.41212   0.77599  -0.09403
C          C       0.57522   0.36919   0.77986  -0.10951
C          C       0.40368   0.79783   0.75483   0.04833
C          C       0.16678   0.58088   0.66458   0.06239
C          C       0.39030   0.57346   0.75848   0.05049
C          C       0.58065   0.17212   0.76714   0.06232
C          C       0.80073   0.39079   0.73946   0.05557
C          C       0.59494   0.40171   0.74873   0.05625
C          C       0.41921   0.77771   0.77504  -0.12520
C          C       0.18758   0.61492   0.64686  -0.11372
C          C       0.35347   0.55666   0.75409  -0.13043
C          C       0.56471   0.19304   0.77793  -0.13002
C          C       0.78142   0.35306   0.72631  -0.13390
C          C       0.63057   0.41417   0.74225  -0.12791
C          C       0.39930   0.74399   0.79270  -0.13520
C          C       0.22537   0.63251   0.67766  -0.13532
C          C       0.33438   0.57258   0.72368  -0.13834
C          C       0.58227   0.22712   0.76186  -0.13254
C          C       0.74862   0.33807   0.76102  -0.13225
C          C       0.64707   0.39632   0.77899  -0.14250
C          C       0.42716   0.83521   0.75614   0.07824
C          C       0.12888   0.56621   0.65752   0.07032
C          C       0.40854   0.55440   0.77561   0.06926
C          C       0.56066   0.13613   0.78002   0.06396
C          C       0.83766   0.40742   0.73005   0.06656
C          C       0.57958   0.42309   0.72764   0.06049
C          C       0.43916   0.89119   0.73716   0.21423
C          C       0.07701   0.52942   0.72321   0.20023
C          C       0.45375   0.54232   0.74580   0.20271
C          C       0.54846   0.07725   0.75302   0.20279
C          C       0.89543   0.45719   0.76066   0.21301
C          C       0.53953   0.44256   0.77848   0.19869
C          C       0.47334   0.90408   0.70988  -0.17346
C          C       0.06497   0.55435   0.76233  -0.18021
C          C       0.43283   0.50302   0.71241  -0.17342
C          C       0.50966   0.05738   0.71092  -0.17522
C          C       0.90261   0.43297   0.62889  -0.18174
C          C       0.55679   0.47503   0.74509  -0.16634
C          C       0.49463   0.94040   0.71582  -0.12498
C          C       0.03041   0.54153   0.77857  -0.12449
C          C       0.44976   0.48385   0.71414  -0.12331
C          C       0.48906   0.02188   0.71238  -0.11880
C          C       0.93840   0.44834   0.62717  -0.12576
C          C       0.54014   0.49413   0.73400  -0.12242
C          C       0.48333   0.96591   0.74998   0.05384
C          C       0.00624   0.50328   0.75332   0.06143
C          C       0.48832   0.50274   0.74995   0.05647
C          C       0.50583   0.00422   0.75488   0.06510
C          C       0.96868   0.48823   0.75857   0.05792
C          C       0.50605   0.48251   0.76053   0.05296
C          C       0.44923   0.95284   0.77724  -0.12696
C          C       0.01888   0.47902   0.72007  -0.12976
C          C       0.50874   0.54156   0.77667  -0.12596
C          C       0.54462   0.02414   0.79531  -0.13057
C          C       0.96131   0.51234   0.88918  -0.12981
C          C       0.48962   0.45083   0.80007  -0.13311
C          C       0.42751   0.91632   0.76864  -0.14905
C          C       0.05375   0.49203   0.70879  -0.14548
C          C       0.49184   0.56071   0.77257  -0.14721
C          C       0.56535   0.05952   0.79244  -0.14731
C          C       0.92540   0.49736   0.88930  -0.15180
C          C       0.50587   0.43128   0.80871  -0.14715
N          N       0.44297   0.88672   0.23328  -0.27917
N          N       0.13892   0.55907   0.20392  -0.30291
N          N       0.44286   0.57745   0.26106  -0.28818
N          N       0.57912   0.14598   0.25283  -0.28970
N          N       0.88383   0.44625   0.23502  -0.27235
N          N       0.56166   0.43847   0.30094  -0.30874
N          N       0.41497   0.85495   0.73007  -0.30024
N          N       0.11157   0.53996   0.70986  -0.29385
N          N       0.43876   0.56345   0.74136  -0.29475
N          N       0.57105   0.11281   0.75214  -0.28341
N          N       0.86006   0.44385   0.76938  -0.28549
N          N       0.55338   0.42075   0.78965  -0.29122

