data_crystal

_audit_creation_method 'AiiDA-DDEC plugin'

_cell_length_a        46.06039
_cell_length_b        47.12996
_cell_length_c         7.98833

_cell_angle_alpha     67.59321
_cell_angle_beta     89.07310
_cell_angle_gamma     89.89486

_symmetry_space_group_name_Hall 'P 1'
_symmetry_space_group_name_H-M  'P 1'

loop_
_symmetry_equiv_pos_as_xyz
 'x,y,z'

loop_
_atom_site_label
_atom_site_type_symbol
_atom_site_fract_x
_atom_site_fract_y
_atom_site_fract_z
_atom_site_charge
H          H       0.97207   0.56808   0.07275   0.10343
H          H       0.94601   0.58686   0.78707   0.10550
H          H       0.91421   0.63081   0.75843   0.10128
H          H       0.85669   0.57088   0.16909   0.11142
H          H       0.88833   0.52656   0.19601   0.10143
H          H       0.87104   0.65187   0.83926   0.06259
H          H       0.14605   0.31373   0.11366   0.10662
H          H       0.18005   0.27383   0.10705   0.10550
H          H       0.23434   0.34267   0.71978   0.09930
H          H       0.20019   0.38303   0.72911   0.12131
H          H       0.47259   0.07606   0.95397   0.10360
H          H       0.44553   0.08943   0.68957   0.10406
H          H       0.41334   0.13374   0.64670   0.10373
H          H       0.35773   0.07695   0.08141   0.11273
H          H       0.38950   0.03211   0.12105   0.10004
H          H       0.36971   0.15559   0.71817   0.06526
H          H       0.63735   0.81736   0.05588   0.09703
H          H       0.66758   0.77352   0.06008   0.11263
H          H       0.74263   0.81667   0.17486   0.10097
H          H       0.71242   0.86094   0.16440   0.11783
H          H       0.29177   0.74589   0.16413   0.10425
H          H       0.25934   0.70274   0.19826   0.10414
H          H       0.90006   0.50015   0.00593   0.10541
H          H       0.02783   0.43527   0.93512   0.10394
H          H       0.05391   0.41629   0.21563   0.10701
H          H       0.08510   0.37242   0.23439   0.10156
H          H       0.14226   0.43310   0.82426   0.11366
H          H       0.11144   0.47739   0.80959   0.09949
H          H       0.12780   0.35169   0.14638   0.06141
H          H       0.84518   0.68895   0.82489   0.10830
H          H       0.80988   0.72743   0.83198   0.10189
H          H       0.76495   0.65907   0.28141   0.09608
H          H       0.79982   0.61998   0.26795   0.11880
H          H       0.52940   0.93171   0.98755   0.10173
H          H       0.54869   0.91100   0.29306   0.10558
H          H       0.57943   0.86596   0.32880   0.10237
H          H       0.64371   0.92479   0.96797   0.11487
H          H       0.61298   0.97036   0.93415   0.10752
H          H       0.62138   0.84299   0.24809   0.05871
H          H       0.35690   0.19528   0.76366   0.10715
H          H       0.32424   0.23758   0.74659   0.10445
H          H       0.26288   0.17297   0.10157   0.10326
H          H       0.29611   0.13017   0.11970   0.11852
H          H       0.70438   0.25419   0.03531   0.10302
H          H       0.73962   0.29423   0.01887   0.10686
H          H       0.09989   0.50318  -0.00017   0.10356
H          H       0.52424   0.07408   0.00568   0.10507
H          H       0.54626   0.06993   0.21354   0.10147
H          H       0.57664   0.11392   0.19140   0.10292
H          H       0.64762   0.07717   0.98398   0.11668
H          H       0.61609   0.03500   0.98313   0.10790
H          H       0.62219   0.14335   0.10264   0.06533
H          H       0.35683   0.82369   0.92488   0.10038
H          H       0.32254   0.78208   0.94384   0.10425
H          H       0.25100   0.83801   0.98226   0.09057
H          H       0.28534   0.88016   0.95480   0.11890
H          H       0.02515   0.56834   0.07806   0.10507
H          H       0.05183   0.58930   0.81236   0.10556
H          H       0.08150   0.63339   0.80673   0.10264
H          H       0.14096   0.57185   0.17914   0.11444
H          H       0.11084   0.52751   0.18842   0.09731
H          H       0.12235   0.65459   0.90683   0.05898
H          H       0.86331   0.30891   0.12398   0.10541
H          H       0.83160   0.26610   0.13568   0.10230
H          H       0.76887   0.33017   0.81023   0.10304
H          H       0.80092   0.37353   0.79829   0.11773
H          H       0.19825   0.24870   0.91257   0.10201
H          H       0.23232   0.20912   0.90576   0.10660
H          H       0.59669   0.99362   0.14734   0.10276
H          H       0.47720   0.93407   0.92959   0.10595
H          H       0.44623   0.91671   0.17610   0.10562
H          H       0.41451   0.87311   0.19990   0.10204
H          H       0.36003   0.93359   0.78489   0.11457
H          H       0.39267   0.97730   0.75441   0.10174
H          H       0.37225   0.85200   0.10765   0.05970
H          H       0.65183   0.18391   0.85807   0.10896
H          H       0.68504   0.22635   0.84416   0.10356
H          H       0.74082   0.16108   0.22690   0.09765
H          H       0.70844   0.11862   0.23328   0.12114
H          H       0.97461   0.43458   0.93511   0.10567
H          H       0.94766   0.41519   0.22207   0.10388
H          H       0.91706   0.37023   0.25554   0.10436
H          H       0.86048   0.42759   0.84299   0.11262
H          H       0.89049   0.47321   0.81442   0.09898
H          H       0.87432   0.34779   0.18418   0.06276
H          H       0.13538   0.68133   0.09166   0.09921
H          H       0.16660   0.72505   0.07916   0.11326
H          H       0.24230   0.67536   0.02864   0.10048
H          H       0.21105   0.63111   0.04803   0.11688
H          H       0.79562   0.75696   0.97678   0.10381
H          H       0.76364   0.79617   0.00517   0.10566
H          H       0.40111   0.00437   0.92393   0.10579
H          H       0.23037   0.83270   0.74680   0.28719
H          H       0.67795   0.62724   0.38443   0.34782
H          H       0.62152   0.66604   0.27889   0.12709
H          H       0.63945   0.68846   0.06984   0.13902
H          H       0.63361   0.70438   0.23577   0.14934
H          H       0.66660   0.66498   0.44654   0.05211
H          H       0.77410   0.17475   0.98449   0.29072
H          H       0.34040   0.36073   0.86703   0.34855
H          H       0.36464   0.29358   0.88447   0.14078
H          H       0.35836   0.27847   0.12279   0.14928
H          H       0.37706   0.31417   0.01711   0.12397
H          H       0.32530   0.32103   0.09854   0.05085
H          H       0.27032   0.32661   0.95115   0.29298
H          H       0.83654   0.13977   0.99445   0.35080
H          H       0.86679   0.21938   0.83004   0.15439
H          H       0.87983   0.18106   0.89381   0.12602
H          H       0.86878   0.19515   0.06280   0.13414
H          H       0.82955   0.18514   0.78258   0.05227
H          H       0.72354   0.66786   0.16597   0.28397
H          H       0.16384   0.86601   0.56668   0.34815
H          H       0.13585   0.80043   0.74354   0.13904
H          H       0.15048   0.78886   0.57210   0.15168
H          H       0.13325   0.82522   0.50968   0.12249
H          H       0.18633   0.83166   0.48382   0.04208
H          H       0.97292   0.56717   0.57323   0.10473
H          H       0.94652   0.58643   0.28802   0.10657
H          H       0.91365   0.62966   0.25915   0.10161
H          H       0.85725   0.56858   0.67276   0.11191
H          H       0.88971   0.52484   0.69703   0.09988
H          H       0.87004   0.64965   0.34203   0.06345
H          H       0.14649   0.31363   0.60869   0.10699
H          H       0.17974   0.27311   0.60264   0.10516
H          H       0.23494   0.34097   0.21621   0.09769
H          H       0.20157   0.38193   0.22449   0.12201
H          H       0.47427   0.07420   0.46443   0.10456
H          H       0.44853   0.08930   0.19902   0.10465
H          H       0.41646   0.13387   0.15342   0.10292
H          H       0.35800   0.07661   0.56777   0.11387
H          H       0.38982   0.03162   0.61153   0.10035
H          H       0.37272   0.15592   0.21826   0.06279
H          H       0.63606   0.81414   0.55129   0.09666
H          H       0.66619   0.77015   0.55529   0.11285
H          H       0.74105   0.81215   0.68077   0.10136
H          H       0.71099   0.85645   0.67206   0.11849
H          H       0.29039   0.74787   0.66854   0.10404
H          H       0.25938   0.70369   0.70415   0.10622
H          H       0.90100   0.49963   0.50417   0.10408
H          H       0.02865   0.43445   0.43431   0.10268
H          H       0.05524   0.41594   0.71029   0.10775
H          H       0.08678   0.37226   0.72993   0.10165
H          H       0.14347   0.43320   0.31758   0.11200
H          H       0.11236   0.47729   0.30258   0.10081
H          H       0.12949   0.35176   0.64365   0.05890
H          H       0.84479   0.68599   0.33248   0.10658
H          H       0.80912   0.72422   0.33772   0.10185
H          H       0.76521   0.65604   0.79309   0.09614
H          H       0.80015   0.61697   0.77898   0.11930
H          H       0.52854   0.92897   0.49348   0.10196
H          H       0.54829   0.90844   0.79456   0.10704
H          H       0.57840   0.86294   0.83003   0.10050
H          H       0.64320   0.92091   0.46918   0.11517
H          H       0.61306   0.96678   0.43363   0.10675
H          H       0.61998   0.83943   0.74526   0.06024
H          H       0.35383   0.19508   0.22391   0.10610
H          H       0.32194   0.23671   0.22302   0.10441
H          H       0.26790   0.17222   0.63789   0.10449
H          H       0.30069   0.12982   0.64067   0.11874
H          H       0.70374   0.25130   0.52750   0.10367
H          H       0.73660   0.29351   0.50553   0.10857
H          H       0.10079   0.50245   0.49974   0.10401
H          H       0.52607   0.07158   0.51220   0.10529
H          H       0.54948   0.06633   0.71674   0.10206
H          H       0.58107   0.10906   0.70198   0.10150
H          H       0.64983   0.07351   0.46909   0.11518
H          H       0.61701   0.03260   0.46303   0.10556
H          H       0.62541   0.13759   0.61703   0.06407
H          H       0.35417   0.82570   0.42917   0.10157
H          H       0.32044   0.78336   0.45500   0.10452
H          H       0.24800   0.84018   0.46606   0.08990
H          H       0.28181   0.88297   0.43250   0.11722
H          H       0.02603   0.56744   0.57857   0.10517
H          H       0.05301   0.58890   0.31277   0.10597
H          H       0.08304   0.63262   0.30966   0.10085
H          H       0.14189   0.57038   0.68278   0.11384
H          H       0.11145   0.52640   0.69016   0.09690
H          H       0.12379   0.65335   0.40961   0.05857
H          H       0.85838   0.31042   0.64490   0.10577
H          H       0.82738   0.26787   0.65076   0.10502
H          H       0.76818   0.33162   0.28675   0.10337
H          H       0.80005   0.37494   0.27790   0.11674
H          H       0.19896   0.24601   0.42215   0.10439
H          H       0.23395   0.20638   0.42651   0.10806
H          H       0.59774   0.99093   0.63829   0.10253
H          H       0.47645   0.93258   0.43143   0.10475
H          H       0.44465   0.91556   0.67119   0.10688
H          H       0.41114   0.87345   0.69172   0.10181
H          H       0.35823   0.93662   0.27861   0.11428
H          H       0.39258   0.97879   0.25132   0.10031
H          H       0.36845   0.85428   0.60056   0.05829
H          H       0.65265   0.17961   0.37501   0.10756
H          H       0.68477   0.22297   0.35427   0.10577
H          H       0.74483   0.15946   0.71185   0.09756
H          H       0.71341   0.11602   0.72408   0.12003
H          H       0.97552   0.43373   0.43480   0.10461
H          H       0.94797   0.41393   0.71300   0.10602
H          H       0.91627   0.36985   0.74267   0.10250
H          H       0.85940   0.42963   0.34168   0.11311
H          H       0.89061   0.47420   0.31607   0.09735
H          H       0.87378   0.34872   0.67037   0.05989
H          H       0.13587   0.67959   0.59446   0.09836
H          H       0.16623   0.72380   0.58265   0.11399
H          H       0.24295   0.67561   0.53158   0.10026
H          H       0.21253   0.63077   0.55057   0.11618
H          H       0.79424   0.75399   0.47650   0.10496
H          H       0.76162   0.79289   0.50269   0.10377
H          H       0.40184   0.00470   0.42079   0.10470
H          H       0.22691   0.83255   0.24377   0.28570
H          H       0.66943   0.62174   0.85403   0.35205
H          H       0.62114   0.66039   0.80776   0.12596
H          H       0.63632   0.68390   0.59241   0.14148
H          H       0.63326   0.69859   0.76573   0.15046
H          H       0.66842   0.65822   0.95406   0.05557
H          H       0.77824   0.17558   0.47494   0.29034
H          H       0.33331   0.36364   0.37587   0.34999
H          H       0.36508   0.30507   0.33793   0.13374
H          H       0.36108   0.28298   0.57350   0.15194
H          H       0.37540   0.32105   0.49809   0.12575
H          H       0.32463   0.32030   0.60115   0.05359
H          H       0.26946   0.32701   0.43689   0.29135
H          H       0.84261   0.14434   0.49160   0.34915
H          H       0.86709   0.22751   0.30753   0.15213
H          H       0.88421   0.19084   0.38185   0.12390
H          H       0.87098   0.20594   0.54252   0.13841
H          H       0.83372   0.18824   0.28120   0.04804
H          H       0.72398   0.66354   0.67652   0.28589
H          H       0.16745   0.86541   0.02876   0.34815
H          H       0.13300   0.80387   0.25221   0.13640
H          H       0.14605   0.78501   0.11099   0.15319
H          H       0.13121   0.82259   0.01074   0.12362
H          H       0.18380   0.82597   0.98041   0.04423
C          C       0.96846   0.52683   0.01522   0.03090
C          C       0.98420   0.55045   0.04573  -0.13467
C          C       0.93765   0.52682   0.00583   0.02293
C          C       0.91978   0.55345   0.99571   0.07963
C          C       0.92678   0.58334   0.87353  -0.13269
C          C       0.90874   0.60800   0.85659  -0.12786
C          C       0.88327   0.60382   0.96287   0.05343
C          C       0.87620   0.57397   0.08539  -0.09484
C          C       0.89396   0.54941   0.09963  -0.13377
C          C       0.86494   0.62989   0.94745   0.07251
C          C       0.17132   0.35170   0.92546   0.19878
C          C       0.16545   0.32040   0.02798  -0.17002
C          C       0.18456   0.29778   0.02380  -0.12888
C          C       0.21026   0.30515   0.91782   0.07029
C          C       0.21556   0.33633   0.81117  -0.14611
C          C       0.19641   0.35902   0.81397  -0.14625
C          C       0.77763   0.26978   0.99348   0.01674
C          C       0.78682   0.24141   0.98917   0.09634
C          C       0.76602   0.21843   0.00209   0.09242
C          C       0.46879   0.02960   0.96433   0.03533
C          C       0.48430   0.05503   0.97396  -0.13089
C          C       0.43835   0.03043   0.93571   0.02714
C          C       0.42024   0.05764   0.91154   0.07229
C          C       0.42670   0.08672   0.77839  -0.13504
C          C       0.40845   0.11158   0.75353  -0.12572
C          C       0.38351   0.10840   0.86302   0.05570
C          C       0.37690   0.07929   0.99580  -0.09582
C          C       0.39476   0.05444   0.01727  -0.13511
C          C       0.36526   0.13491   0.83982   0.06965
C          C       0.67279   0.84199   0.11242   0.20782
C          C       0.66035   0.81682   0.08561  -0.18228
C          C       0.67736   0.79233   0.08631  -0.10320
C          C       0.70748   0.79185   0.11602   0.06958
C          C       0.71962   0.81688   0.14618  -0.13152
C          C       0.70287   0.84166   0.14175  -0.15881
C          C       0.26411   0.78111   0.99013  -0.02249
C          C       0.27126   0.75045   0.09332  -0.13686
C          C       0.25263   0.72586   0.11380  -0.15319
C          C       0.92367   0.50056   0.00465  -0.18336
C          C       0.98442   0.50151   0.00381   0.00532
C          C       0.03142   0.47656   0.99221   0.03291
C          C       0.01569   0.45286   0.96249  -0.13617
C          C       0.06224   0.47662   0.00027   0.02017
C          C       0.07998   0.45008   0.00763   0.08139
C          C       0.07291   0.42003   0.12706  -0.13361
C          C       0.09060   0.39539   0.13833  -0.12734
C          C       0.11567   0.39976   0.02843   0.05278
C          C       0.12295   0.42980   0.90990  -0.09474
C          C       0.10563   0.45434   0.90219  -0.13377
C          C       0.13340   0.37367   0.03670   0.07644
C          C       0.82492   0.65118   0.04709   0.19357
C          C       0.82774   0.68210   0.92606  -0.16930
C          C       0.80778   0.70399   0.93018  -0.12512
C          C       0.78413   0.69646   0.05422   0.07067
C          C       0.78153   0.66559   0.17487  -0.14344
C          C       0.80143   0.64359   0.17125  -0.14791
C          C       0.22518   0.72980   0.03449   0.02252
C          C       0.21725   0.76046   0.93155   0.10049
C          C       0.23658   0.78507   0.91091   0.09644
C          C       0.53102   0.97364   0.03835   0.03573
C          C       0.51658   0.95046  -0.00351  -0.13487
C          C       0.56077   0.97138   0.08533   0.02440
C          C       0.57842   0.94394   0.10846   0.07643
C          C       0.56929   0.91414   0.21965  -0.13519
C          C       0.58664   0.88883   0.24001  -0.13360
C          C       0.61360   0.89237   0.14944   0.05691
C          C       0.62294   0.92218   0.03910  -0.09530
C          C       0.60575   0.94739   0.02075  -0.13504
C          C       0.63127   0.86552   0.16988   0.06536
C          C       0.32823   0.15942   0.93885   0.19799
C          C       0.33620   0.19014   0.83676  -0.17298
C          C       0.31793   0.21413   0.82832  -0.10345
C          C       0.29085   0.20851   0.91953   0.07124
C          C       0.28314   0.17782   0.02376  -0.12773
C          C       0.30162   0.15380   0.03526  -0.15421
C          C       0.73594   0.22163   0.01981  -0.01927
C          C       0.72738   0.25012   0.02097  -0.13999
C          C       0.74748   0.27310   0.00950  -0.15246
C          C       0.07628   0.50277   0.00229  -0.18109
C          C       0.01555   0.50189   0.00421   0.00684
C          C       0.52991   0.02637   0.04040   0.03594
C          C       0.51341   0.05366   0.00646  -0.13527
C          C       0.56008   0.02396   0.08320   0.02275
C          C       0.57805   0.04922   0.09378   0.07512
C          C       0.56778   0.07210   0.15264  -0.13890
C          C       0.58523   0.09680   0.14323  -0.12793
C          C       0.61424   0.09897   0.08242   0.04288
C          C       0.62522   0.07548   0.03206  -0.11256
C          C       0.60746   0.05159   0.03503  -0.12523
C          C       0.63281   0.12420   0.07940   0.06807
C          C       0.32341   0.85455   0.94389   0.20795
C          C       0.33364   0.82654   0.94124  -0.18251
C          C       0.31435   0.80317   0.95228  -0.12150
C          C       0.28418   0.80651   0.96929   0.07459
C          C       0.27416   0.83488   0.96753  -0.14534
C          C       0.29321   0.85850   0.95339  -0.15555
C          C       0.72608   0.76728   0.10398   0.01772
C          C       0.71632   0.73685   0.14629   0.10631
C          C       0.73520   0.71445   0.12547   0.09473
C          C       0.03063   0.52751   0.01739   0.03291
C          C       0.01387   0.55067   0.04799  -0.13357
C          C       0.06152   0.52839   0.00780   0.02410
C          C       0.07869   0.55504   0.00412   0.07552
C          C       0.07090   0.58538   0.89649  -0.13248
C          C       0.08782   0.61014   0.89215  -0.13579
C          C       0.11323   0.60554   0.99382   0.05818
C          C       0.12139   0.57525   0.09947  -0.09387
C          C       0.10451   0.55069   0.10319  -0.13327
C          C       0.13073   0.63164   0.98848   0.06541
C          C       0.83358   0.34446   0.96605   0.19761
C          C       0.84245   0.31380   0.05703  -0.17491
C          C       0.82477   0.28958   0.06256  -0.10587
C          C       0.79745   0.29498   0.97996   0.07722
C          C       0.78916   0.32560   0.88347  -0.13009
C          C       0.80700   0.34985   0.87493  -0.15257
C          C       0.23059   0.28116   0.91598  -0.02134
C          C       0.22143   0.25283   0.91499  -0.13542
C          C       0.24092   0.23013   0.91245  -0.15148
C          C       0.57414   0.99629   0.10653  -0.18202
C          C       0.51525   0.00077   0.02258   0.00384
C          C       0.47019   0.97658   0.97030   0.03297
C          C       0.48746   0.95176   0.96456  -0.13088
C          C       0.43946   0.97709   0.95409   0.02366
C          C       0.42209   0.95033   0.96185   0.07689
C          C       0.42799   0.92040   0.08564  -0.13317
C          C       0.40982   0.89592   0.10060  -0.13254
C          C       0.38494   0.90045   0.99434   0.05039
C          C       0.37899   0.93029   0.86961  -0.09321
C          C       0.39720   0.95455   0.85430  -0.13198
C          C       0.36556   0.87494   0.01380   0.06799
C          C       0.67779   0.14842   0.04876   0.20451
C          C       0.67112   0.17911   0.94105  -0.18097
C          C       0.68983   0.20284   0.93285  -0.12466
C          C       0.71557   0.19689   0.03206   0.06417
C          C       0.72180   0.16612   0.14145  -0.14009
C          C       0.70362   0.14227   0.14752  -0.15824
C          C       0.27122   0.23361   0.91224   0.01984
C          C       0.28107   0.26194   0.91414   0.09645
C          C       0.26091   0.28460   0.91744   0.09133
C          C       0.96938   0.47578   0.99204   0.03159
C          C       0.98602   0.45246   0.96252  -0.13043
C          C       0.93853   0.47481   0.00221   0.02686
C          C       0.92160   0.44755   0.01357   0.07316
C          C       0.92891   0.41800   0.13635  -0.13375
C          C       0.91159   0.39273   0.15567  -0.12997
C          C       0.88680   0.39589   0.04997   0.05818
C          C       0.87950   0.42535   0.92600  -0.09567
C          C       0.89634   0.45060   0.91098  -0.13605
C          C       0.86946   0.36901   0.06799   0.07183
C          C       0.17116   0.65350   0.06570   0.20866
C          C       0.15880   0.68021   0.07545  -0.18368
C          C       0.17624   0.70471   0.06879  -0.10033
C          C       0.20661   0.70355   0.05041   0.07013
C          C       0.21888   0.67654   0.04484  -0.13003
C          C       0.20161   0.65182   0.05480  -0.15776
C          C       0.76425   0.72019   0.06470  -0.01597
C          C       0.77334   0.75067   0.02323  -0.14443
C          C       0.75510   0.77305   0.04223  -0.15576
C          C       0.42460   0.00401   0.93665  -0.18437
C          C       0.48476   0.00237   0.98518   0.00370
C          C       0.19623   0.80154   0.75087   0.26960
C          C       0.63865   0.68308   0.21589  -0.44341
C          C       0.66795   0.67115   0.29919   0.18424
C          C       0.81068   0.20411   0.95787   0.27178
C          C       0.35958   0.29970   0.00086  -0.45224
C          C       0.33077   0.31666   0.97557   0.18682
C          C       0.30648   0.29832   0.94391   0.27086
C          C       0.86412   0.19564   0.92773  -0.45465
C          C       0.83335   0.18452   0.91985   0.18611
C          C       0.69134   0.69500   0.22588   0.26955
C          C       0.14696   0.80856   0.61135  -0.45131
C          C       0.17594   0.82346   0.61910   0.19626
C          C       0.96944   0.52613   0.51343   0.03205
C          C       0.98509   0.54968   0.54502  -0.13426
C          C       0.93866   0.52611   0.50458   0.02398
C          C       0.92067   0.55250   0.49633   0.07802
C          C       0.92726   0.58251   0.37458  -0.13474
C          C       0.90871   0.60676   0.35815  -0.12729
C          C       0.88333   0.60198   0.46561   0.05481
C          C       0.87676   0.57202   0.58867  -0.09501
C          C       0.89493   0.54786   0.60133  -0.13448
C          C       0.86456   0.62761   0.45149   0.07012
C          C       0.17229   0.35115   0.42072   0.19886
C          C       0.16594   0.31995   0.52326  -0.17047
C          C       0.18463   0.29697   0.51955  -0.12893
C          C       0.21043   0.30388   0.41463   0.07062
C          C       0.21613   0.33495   0.30743  -0.14514
C          C       0.19740   0.35800   0.30949  -0.14814
C          C       0.77607   0.27075   0.48473   0.01903
C          C       0.78669   0.24267   0.48308   0.09826
C          C       0.76724   0.21855   0.49543   0.09241
C          C       0.46991   0.02834   0.46607   0.03201
C          C       0.48578   0.05324   0.47978  -0.13141
C          C       0.43952   0.02983   0.43588   0.02849
C          C       0.42179   0.05727   0.41111   0.07145
C          C       0.42906   0.08654   0.28272  -0.13592
C          C       0.41087   0.11151   0.25618  -0.12794
C          C       0.38511   0.10823   0.35877   0.05825
C          C       0.37776   0.07896   0.48709  -0.09525
C          C       0.39562   0.05405   0.51071  -0.13540
C          C       0.36701   0.13487   0.33473   0.06972
C          C       0.67153   0.83830   0.61196   0.20467
C          C       0.65902   0.81341   0.58238  -0.18441
C          C       0.67591   0.78881   0.58335  -0.10355
C          C       0.70594   0.78806   0.61542   0.07152
C          C       0.71815   0.81277   0.64877  -0.13073
C          C       0.70151   0.83755   0.64504  -0.15715
C          C       0.26215   0.78213   0.49186  -0.02433
C          C       0.26999   0.75172   0.59679  -0.13945
C          C       0.25213   0.72652   0.61845  -0.15451
C          C       0.92460   0.49999   0.50259  -0.18356
C          C       0.98533   0.50082   0.50144   0.00430
C          C       0.03237   0.47599   0.48889   0.03265
C          C       0.01658   0.45217   0.46065  -0.13620
C          C       0.06320   0.47618   0.49602   0.02055
C          C       0.08109   0.44981   0.50194   0.08220
C          C       0.07424   0.41973   0.62177  -0.13409
C          C       0.09212   0.39522   0.63327  -0.12609
C          C       0.11718   0.39973   0.52326   0.05355
C          C       0.12421   0.42979   0.40376  -0.09421
C          C       0.10671   0.45423   0.39593  -0.13559
C          C       0.13493   0.37362   0.53240   0.07799
C          C       0.82474   0.64823   0.55546   0.19215
C          C       0.82741   0.67910   0.43403  -0.16683
C          C       0.80730   0.70087   0.43738  -0.12537
C          C       0.78378   0.69319   0.56214   0.07051
C          C       0.78155   0.66245   0.68520  -0.14450
C          C       0.80152   0.64053   0.68145  -0.14800
C          C       0.22473   0.72960   0.53914   0.01925
C          C       0.21616   0.75990   0.43472   0.10203
C          C       0.23476   0.78516   0.41202   0.09626
C          C       0.53116   0.97131   0.53883   0.03492
C          C       0.51616   0.94821   0.49932  -0.13634
C          C       0.56102   0.96865   0.58379   0.02469
C          C       0.57825   0.94091   0.60878   0.07665
C          C       0.56887   0.91126   0.72109  -0.13689
C          C       0.58588   0.88571   0.74144  -0.13261
C          C       0.61279   0.88892   0.65059   0.05634
C          C       0.62246   0.91859   0.54035  -0.09385
C          C       0.60556   0.94399   0.52125  -0.13251
C          C       0.63011   0.86194   0.66938   0.06159
C          C       0.32918   0.15904   0.43182   0.19142
C          C       0.33517   0.18967   0.31604  -0.16981
C          C       0.31725   0.21341   0.31621  -0.10834
C          C       0.29227   0.20755   0.42841   0.07505
C          C       0.28639   0.17703   0.54467  -0.13347
C          C       0.30466   0.15332   0.54750  -0.15229
C          C       0.73693   0.22025   0.51350  -0.02145
C          C       0.72695   0.24849   0.51223  -0.13941
C          C       0.74574   0.27270   0.49842  -0.15296
C          C       0.07719   0.50217   0.50055  -0.18257
C          C       0.01646   0.50123   0.50182   0.00654
C          C       0.53115   0.02416   0.53873   0.03509
C          C       0.51497   0.05148   0.51020  -0.13349
C          C       0.56147   0.02147   0.57668   0.02394
C          C       0.58010   0.04641   0.58525   0.07804
C          C       0.57072   0.06857   0.65222  -0.14204
C          C       0.58886   0.09249   0.64705  -0.12145
C          C       0.61762   0.09464   0.58162   0.04032
C          C       0.62769   0.07190   0.52154  -0.10717
C          C       0.60924   0.04868   0.52136  -0.12968
C          C       0.63628   0.11933   0.58562   0.07302
C          C       0.32031   0.85704   0.43546   0.20783
C          C       0.33089   0.82862   0.44135  -0.17941
C          C       0.31194   0.80482   0.45631  -0.12007
C          C       0.28166   0.80808   0.46810   0.07616
C          C       0.27125   0.83690   0.45649  -0.15006
C          C       0.29002   0.86095   0.43890  -0.15608
C          C       0.72453   0.76345   0.60420   0.01884
C          C       0.71510   0.73282   0.64826   0.10453
C          C       0.73448   0.71057   0.63071   0.09490
C          C       0.03150   0.52681   0.51595   0.03297
C          C       0.01475   0.54989   0.54742  -0.13271
C          C       0.06239   0.52769   0.50733   0.02440
C          C       0.07952   0.55426   0.50564   0.07584
C          C       0.07194   0.58469   0.39832  -0.13125
C          C       0.08903   0.60926   0.39506  -0.13421
C          C       0.11441   0.60440   0.49716   0.05952
C          C       0.12233   0.57404   0.60287  -0.09428
C          C       0.10526   0.54967   0.60560  -0.13496
C          C       0.13208   0.63038   0.49148   0.06674
C          C       0.83092   0.34613   0.46358   0.19645
C          C       0.83868   0.31547   0.56569  -0.17175
C          C       0.82129   0.29126   0.56868  -0.10652
C          C       0.79514   0.29650   0.47293   0.07495
C          C       0.78764   0.32706   0.36814  -0.13204
C          C       0.80537   0.35134   0.36195  -0.15337
C          C       0.23075   0.27964   0.41694  -0.02057
C          C       0.22206   0.25068   0.42398  -0.13926
C          C       0.24205   0.22800   0.42711  -0.15360
C          C       0.57507   0.99360   0.60030  -0.18224
C          C       0.51590   0.99877   0.52224   0.00456
C          C       0.47029   0.97539   0.46983   0.03294
C          C       0.48707   0.95014   0.46596  -0.13173
C          C       0.43957   0.97658   0.45183   0.02809
C          C       0.42144   0.95042   0.45758   0.07550
C          C       0.42642   0.92016   0.57993  -0.13400
C          C       0.40728   0.89652   0.59301  -0.13161
C          C       0.38234   0.90220   0.48646   0.05204
C          C       0.37729   0.93236   0.36323  -0.09380
C          C       0.39645   0.95577   0.34986  -0.13240
C          C       0.36230   0.87729   0.50506   0.06859
C          C       0.68054   0.14478   0.55451   0.20599
C          C       0.67253   0.17532   0.45241  -0.17666
C          C       0.69073   0.19966   0.43999  -0.12461
C          C       0.71739   0.19463   0.52970   0.06519
C          C       0.72496   0.16400   0.63416  -0.14156
C          C       0.70723   0.13954   0.64416  -0.15954
C          C       0.27230   0.23228   0.42372   0.01946
C          C       0.28166   0.26105   0.42032   0.09582
C          C       0.26098   0.28359   0.41811   0.09058
C          C       0.97022   0.47509   0.48991   0.03295
C          C       0.98690   0.45174   0.46112  -0.13059
C          C       0.93934   0.47423   0.49963   0.02553
C          C       0.92194   0.44736   0.50958   0.07362
C          C       0.92895   0.41745   0.62866  -0.13476
C          C       0.91098   0.39271   0.64622  -0.12740
C          C       0.88574   0.39677   0.54315   0.05949
C          C       0.87868   0.42662   0.42348  -0.09649
C          C       0.89625   0.45130   0.40964  -0.13472
C          C       0.86795   0.37029   0.55977   0.07108
C          C       0.17222   0.65243   0.56869   0.20845
C          C       0.15933   0.67888   0.57871  -0.18215
C          C       0.17629   0.70363   0.57263  -0.10105
C          C       0.20671   0.70301   0.55473   0.07089
C          C       0.21951   0.67630   0.54825  -0.13032
C          C       0.20271   0.65127   0.55788  -0.15915
C          C       0.76351   0.71670   0.57018  -0.01796
C          C       0.77209   0.74739   0.52458  -0.14044
C          C       0.75346   0.76959   0.54174  -0.15241
C          C       0.42530   0.00377   0.43492  -0.18739
C          C       0.48537   0.00087   0.48558   0.00368
C          C       0.19429   0.79997   0.25157   0.27544
C          C       0.63769   0.67781   0.73877  -0.45528
C          C       0.66792   0.66604   0.80527   0.19373
C          C       0.81304   0.20681   0.45314   0.26533
C          C       0.35960   0.30624   0.46893  -0.44930
C          C       0.32909   0.31870   0.46910   0.18387
C          C       0.30608   0.29869   0.44117   0.27294
C          C       0.86684   0.20420   0.41215  -0.45099
C          C       0.83754   0.18909   0.41516   0.18742
C          C       0.69073   0.69049   0.72912   0.26729
C          C       0.14410   0.80734   0.12353  -0.45432
C          C       0.17420   0.82111   0.11541   0.19272
N          N       0.84303   0.62675   0.05691  -0.30701
N          N       0.34508   0.13366   0.95705  -0.29759
N          N       0.15433   0.37664   0.92091  -0.30789
N          N       0.65720   0.86804   0.10216  -0.27369
N          N       0.66060   0.12351   0.05700  -0.27843
N          N       0.15517   0.62801   0.07089  -0.27840
N          N       0.34131   0.87927   0.92891  -0.28046
N          N       0.84955   0.37049   0.95266  -0.29727
N          N       0.19235   0.77160   0.83157  -0.38038
N          N       0.22251   0.81095   0.79450  -0.32944
N          N       0.81449   0.23158   0.96308  -0.39068
N          N       0.78199   0.19496   0.98248  -0.32123
N          N       0.30917   0.27143   0.92908  -0.37942
N          N       0.27785   0.30754   0.93510  -0.32183
N          N       0.68924   0.72378   0.21066  -0.39624
N          N       0.71837   0.68799   0.17718  -0.31906
N          N       0.84299   0.62401   0.56384  -0.30585
N          N       0.34597   0.13332   0.44719  -0.30021
N          N       0.15563   0.37635   0.41546  -0.30683
N          N       0.65612   0.86437   0.60283  -0.27074
N          N       0.66407   0.11948   0.56058  -0.28376
N          N       0.15653   0.62675   0.57375  -0.27917
N          N       0.33814   0.88194   0.41880  -0.28265
N          N       0.84697   0.37223   0.45011  -0.30132
N          N       0.19111   0.77002   0.33442  -0.38789
N          N       0.22014   0.81041   0.29342  -0.33137
N          N       0.81501   0.23439   0.45899  -0.38363
N          N       0.78481   0.19599   0.47651  -0.32295
N          N       0.30957   0.27139   0.43304  -0.38739
N          N       0.27729   0.30734   0.43010  -0.32394
N          N       0.68808   0.71937   0.71156  -0.39656
N          N       0.71812   0.68378   0.68377  -0.31839
O          O       0.67639   0.64382   0.26684  -0.51356
O          O       0.33176   0.34622   0.82258  -0.53045
O          O       0.82803   0.15324   0.04856  -0.52825
O          O       0.17254   0.85004   0.66998  -0.52870
O          O       0.67640   0.64022   0.75702  -0.52353
O          O       0.32524   0.34922   0.32858  -0.52943
O          O       0.83599   0.15783   0.55072  -0.52867
O          O       0.17366   0.85002   0.14292  -0.52782

