data_crystal

_audit_creation_method 'AiiDA-DDEC plugin'

_cell_length_a        31.87408
_cell_length_b         7.10414
_cell_length_c        26.37287

_cell_angle_alpha     90.32115
_cell_angle_beta     96.92210
_cell_angle_gamma     89.72390

_symmetry_space_group_name_Hall 'P 1'
_symmetry_space_group_name_H-M  'P 1'

loop_
_symmetry_equiv_pos_as_xyz
 'x,y,z'

loop_
_atom_site_label
_atom_site_type_symbol
_atom_site_fract_x
_atom_site_fract_y
_atom_site_fract_z
_atom_site_charge
H          H       0.76985   0.04974   0.39366   0.11534
H          H       0.22282   0.02497   0.10959   0.11538
H          H       0.27256   0.57017   0.39359   0.11459
H          H       0.72768   0.54675   0.10657   0.11545
H          H       0.22770   0.95469   0.60508   0.11542
H          H       0.77439   0.95559   0.89036   0.11559
H          H       0.72962   0.43116   0.61031   0.11727
H          H       0.27219   0.44935   0.89356   0.11579
H          H       0.82289   0.25300   0.35827   0.11499
H          H       0.16932   0.22503   0.14656   0.11511
H          H       0.32775   0.75912   0.35711   0.11541
H          H       0.67216   0.73384   0.14390   0.11445
H          H       0.17268   0.76269   0.64085   0.11325
H          H       0.82827   0.75566   0.85387   0.11544
H          H       0.67411   0.23910   0.64492   0.11562
H          H       0.32801   0.26046   0.85746   0.11369
H          H       0.92067   0.02847   0.46806   0.10514
H          H       0.07339   0.02784   0.02999   0.10419
H          H       0.42343   0.51517   0.46624   0.10437
H          H       0.57983   0.55332   0.02119   0.10568
H          H       0.07821   0.97695   0.52545   0.10404
H          H       0.92408   0.95971   0.96959   0.10504
H          H       0.57867   0.50395   0.53940   0.10593
H          H       0.42143   0.47885   0.97359   0.10497
H          H       0.86778   0.83158   0.50493   0.11423
H          H       0.12682   0.83196   0.99219   0.11353
H          H       0.36852   0.32947   0.50337   0.11450
H          H       0.63505   0.36770   0.98361   0.11205
H          H       0.13305   0.16055   0.48788   0.11180
H          H       0.87016   0.15399   0.00724   0.11279
H          H       0.63395   0.68964   0.50343   0.11390
H          H       0.36583   0.66054   0.01147   0.11235
H          H       0.17659   0.15087   0.37820   0.11560
H          H       0.82060   0.14883   0.11850   0.11474
H          H       0.67569   0.65236   0.38692   0.11330
H          H       0.31715   0.63120   0.11952   0.11589
H          H       0.82819   0.84633   0.61831   0.11420
H          H       0.17679   0.85703   0.88249   0.11473
H          H       0.32356   0.34899   0.61644   0.11364
H          H       0.68394   0.36630   0.87598   0.11596
H          H       0.12787   0.91320   0.33463   0.10443
H          H       0.86553   0.90571   0.16564   0.10608
H          H       0.62995   0.41334   0.33951   0.10490
H          H       0.36548   0.39581   0.16495   0.10761
H          H       0.87583   0.08567   0.66313   0.10440
H          H       0.13229   0.10332   0.83631   0.10370
H          H       0.36931   0.58870   0.66387   0.10488
H          H       0.63600   0.60243   0.83015   0.10813
H          H       0.17050   0.50559   0.45021   0.10522
H          H       0.82994   0.50399   0.04530   0.10368
H          H       0.66828   0.00402   0.45594   0.10378
H          H       0.32975   0.98915   0.04590   0.10465
H          H       0.83286   0.49494   0.54834   0.10436
H          H       0.16819   0.49776   0.95842   0.10246
H          H       0.32888   0.00109   0.54910   0.10378
H          H       0.67111   0.00893   0.94938   0.10505
H          H       0.21641   0.74918   0.49625   0.10862
H          H       0.78696   0.75058   0.99672   0.10803
H          H       0.71296   0.24595   0.50465   0.10855
H          H       0.28311   0.22871  -0.00088   0.11052
H          H       0.78598   0.25316   0.50257   0.10856
H          H       0.21146   0.24917   0.00549   0.10896
H          H       0.28491   0.75834   0.50004   0.10766
H          H       0.71673   0.76817   0.99710   0.10884
H          H       0.91036   0.91393   0.26108   0.10523
H          H       0.08574   0.89983   0.24340   0.10462
H          H       0.41427   0.40529   0.26014   0.10543
H          H       0.58911   0.39556   0.24261   0.10473
H          H       0.09186   0.13000   0.74617   0.10199
H          H       0.91540   0.10107   0.75227   0.10328
H          H       0.58530   0.59278   0.73901   0.10530
H          H       0.41123   0.60430   0.75959   0.10541
H          H       0.04635   0.18068   0.22488   0.10586
H          H       0.95094   0.19123   0.27806   0.10246
H          H       0.55097   0.67683   0.22467   0.10563
H          H       0.45425   0.68569   0.27659   0.10337
H          H       0.95660   0.82428   0.77386   0.10454
H          H       0.05894   0.84270   0.72266   0.10898
H          H       0.45155   0.32399   0.77790   0.10443
H          H       0.54527   0.31998   0.72144   0.10300
H          H       0.02206   0.58701   0.30898   0.09594
H          H       0.97196   0.59311   0.19422   0.09620
H          H       0.52711   0.08741   0.30838   0.09612
H          H       0.47540   0.08985   0.19214   0.09731
H          H       0.97567   0.39353   0.68355   0.09535
H          H       0.02750   0.41188   0.80664   0.09860
H          H       0.47320   0.91790   0.69227   0.09624
H          H       0.52519   0.91077   0.80829   0.09812
H          H       0.86842   0.69457   0.30647   0.12147
H          H       0.12625   0.67171   0.19771   0.12110
H          H       0.37319   0.18283   0.30622   0.12240
H          H       0.62977   0.16968   0.19628   0.12115
H          H       0.13152   0.35992   0.70011   0.12018
H          H       0.87295   0.32249   0.79788   0.12287
H          H       0.62670   0.81209   0.69294   0.12225
H          H       0.37117   0.82888   0.80740   0.12168
H          H       0.01188   0.91909   0.36030   0.10809
H          H       0.98294   0.90615   0.14372   0.10791
H          H       0.51361   0.41612   0.35881   0.10793
H          H       0.48574   0.39964   0.14223   0.10780
H          H       0.99132   0.08018   0.63781   0.10791
H          H       0.00969   0.07763   0.85411   0.10841
H          H       0.48328   0.58909   0.64155   0.10800
H          H       0.51559   0.59538   0.85814   0.10699
H          H       0.06030   0.13562   0.41331   0.11660
H          H       0.93467   0.11985   0.09010   0.11505
H          H       0.56023   0.63521   0.41297   0.11563
H          H       0.43671   0.61068   0.08865   0.11600
H          H       0.94365   0.85924   0.58544   0.11463
H          H       0.05604   0.86221   0.90997   0.11626
H          H       0.43477   0.37062   0.58944   0.11651
H          H       0.56505   0.37930   0.90968   0.11562
H          H       0.98077   0.37379   0.35532   0.10191
H          H       0.01167   0.37113   0.14724   0.10314
H          H       0.48690   0.87152   0.35538   0.10190
H          H       0.51542   0.86814   0.14536   0.10400
H          H       0.01471   0.61958   0.63780   0.10175
H          H       0.98566   0.62834   0.85280   0.10126
H          H       0.51381   0.13202   0.64542   0.10303
H          H       0.48572   0.13100   0.85639   0.10439
H          H       0.09568   0.38669   0.27658   0.10984
H          H       0.90151   0.39426   0.22589   0.11043
H          H       0.59867   0.88563   0.27759   0.11023
H          H       0.40419   0.88685   0.22445   0.11033
H          H       0.90765   0.61491   0.72271   0.10997
H          H       0.10570   0.63537   0.77756   0.11076
H          H       0.40229   0.11491   0.72722   0.11126
H          H       0.59610   0.11594   0.77139   0.11102
H          H       0.93817   0.27555   0.41094   0.06822
H          H       0.05519   0.26795   0.08984   0.06864
H          H       0.44320   0.75753   0.40881   0.06867
H          H       0.55962   0.78387   0.08445   0.07036
H          H       0.05879   0.73637   0.58546   0.06901
H          H       0.94215   0.71518   0.90976   0.06818
H          H       0.55793   0.26146   0.59582   0.06826
H          H       0.44243   0.24514   0.91223   0.06866
H          H       0.09674   0.61930   0.32911   0.06285
H          H       0.89614   0.61471   0.17293   0.06295
H          H       0.60065   0.11769   0.33019   0.06329
H          H       0.39813   0.10697   0.17130   0.06249
H          H       0.90476   0.38085   0.67093   0.06266
H          H       0.10446   0.39739   0.82792   0.06224
H          H       0.39841   0.88389   0.67341   0.06353
H          H       0.60253   0.89083   0.82445   0.06326
C          C       0.02615   0.02962   0.28832   0.04981
C          C       0.97000   0.02887   0.21530   0.05215
C          C       0.52933   0.52605   0.28734   0.04713
C          C       0.47323   0.52368   0.21385   0.05218
C          C       0.97661   0.97337   0.71018   0.05010
C          C       0.03147   0.98022   0.78414   0.04905
C          C       0.47028   0.47643   0.71393   0.05063
C          C       0.52727   0.47688   0.78558   0.05237
C          C       0.97006   0.77107   0.28195   0.05425
C          C       0.02523   0.76623   0.22216   0.05516
C          C       0.47421   0.26538   0.28080   0.05709
C          C       0.52873   0.26251   0.22078   0.05428
C          C       0.03041   0.24110   0.71767   0.05618
C          C       0.97506   0.23735   0.77606   0.05650
C          C       0.52569   0.73647   0.71933   0.05832
C          C       0.47173   0.73823   0.78054   0.05503
C          C       0.92641   0.79782   0.28197  -0.14827
C          C       0.06899   0.78584   0.22228  -0.14891
C          C       0.43060   0.28991   0.28102  -0.15099
C          C       0.57248   0.28197   0.22121  -0.14850
C          C       0.07460   0.23489   0.72212  -0.14848
C          C       0.93125   0.21509   0.77433  -0.14901
C          C       0.56916   0.70927   0.71846  -0.15124
C          C       0.42806   0.71750   0.78096  -0.14966
C          C       0.92111   0.52034   0.33483   0.19914
C          C       0.07241   0.50723   0.16840   0.19731
C          C       0.42649   0.01265   0.33421   0.19844
C          C       0.57599   0.00480   0.16694   0.19790
C          C       0.07649   0.50292   0.66515   0.19779
C          C       0.92583   0.48901   0.82918   0.19961
C          C       0.57391   0.98705   0.66568   0.19794
C          C       0.42506   0.99388   0.83568   0.19883
C          C       0.04951   0.16746   0.26612  -0.11310
C          C       0.94729   0.17246   0.23691  -0.11227
C          C       0.55313   0.66422   0.26589  -0.11177
C          C       0.45041   0.66684   0.23545  -0.11257
C          C       0.95350   0.83524   0.73257  -0.11165
C          C       0.05829   0.84979   0.76372  -0.11170
C          C       0.44770   0.33698   0.73661  -0.11464
C          C       0.54972   0.33559   0.76267  -0.11634
C          C       0.98865   0.61665   0.30959  -0.11783
C          C       0.00561   0.61531   0.19388  -0.11785
C          C       0.49354   0.11326   0.30881  -0.11803
C          C       0.50912   0.11189   0.19230  -0.11830
C          C       0.00984   0.38181   0.68638  -0.11876
C          C       0.99375   0.38778   0.80547  -0.11616
C          C       0.50668   0.88991   0.69160  -0.11800
C          C       0.49157   0.88844   0.80895  -0.11746
C          C       0.90239   0.67466   0.30748  -0.15128
C          C       0.09215   0.65822   0.19641  -0.14945
C          C       0.40719   0.16561   0.30688  -0.15083
C          C       0.59572   0.15509   0.19524  -0.15172
C          C       0.09718   0.36345   0.69653  -0.14922
C          C       0.90703   0.33897   0.79999  -0.15431
C          C       0.59279   0.83192   0.69246  -0.15093
C          C       0.40518   0.84310   0.80776  -0.14995
C          C       0.03004   0.02187   0.34179  -0.14138
C          C       0.96547   0.01385   0.16191  -0.14216
C          C       0.53197   0.51936   0.34078  -0.14251
C          C       0.46828   0.50736   0.16045  -0.14135
C          C       0.97331   0.97784   0.65668  -0.14256
C          C       0.03069   0.98108   0.83718  -0.14064
C          C       0.46581   0.48487   0.66047  -0.14224
C          C       0.53281   0.48941   0.83899  -0.14118
C          C       0.08085   0.27921   0.34916   0.20137
C          C       0.91514   0.27503   0.15353   0.19920
C          C       0.58243   0.77785   0.34965   0.20064
C          C       0.41755   0.76725   0.15209   0.19981
C          C       0.92268   0.71960   0.64984   0.20032
C          C       0.08380   0.73204   0.84816   0.20115
C          C       0.41566   0.22527   0.65401   0.19909
C          C       0.58371   0.23052   0.84482   0.19763
C          C       0.05699   0.14434   0.37183  -0.16833
C          C       0.93849   0.13473   0.13148  -0.16384
C          C       0.55806   0.64289   0.37151  -0.16281
C          C       0.44088   0.62676   0.13002  -0.16563
C          C       0.94672   0.85311   0.62695  -0.16500
C          C       0.05652   0.85955   0.86878  -0.16653
C          C       0.43888   0.36131   0.63092  -0.16545
C          C       0.56054   0.36796   0.86821  -0.16443
C          C       0.96508   0.49449   0.33598  -0.17035
C          C       0.02827   0.48894   0.16699  -0.17130
C          C       0.47057   0.98985   0.33557  -0.17089
C          C       0.53186   0.98575   0.16543  -0.17108
C          C       0.03201   0.51005   0.66025  -0.16788
C          C       0.96998   0.51057   0.83198  -0.17140
C          C       0.52991   0.01224   0.66478  -0.17060
C          C       0.46911   0.01358   0.83645  -0.17231
C          C       0.07700   0.28706   0.29548  -0.17632
C          C       0.91968   0.29045   0.20715  -0.17568
C          C       0.57983   0.78512   0.29601  -0.17579
C          C       0.42250   0.78367   0.20571  -0.17671
C          C       0.92633   0.71363   0.70351  -0.17442
C          C       0.08453   0.73023   0.79486  -0.17835
C          C       0.42021   0.21598   0.70772  -0.17510
C          C       0.57809   0.21732   0.79115  -0.17505
C          C       0.22532   0.11360   0.46893  -0.07163
C          C       0.77697   0.11772   0.02495  -0.06997
C          C       0.72377   0.61222   0.47751  -0.07127
C          C       0.27123   0.59434   0.02780  -0.07028
C          C       0.77780   0.88615   0.52945  -0.07154
C          C       0.22141   0.88258   0.97546  -0.06925
C          C       0.27596   0.39013   0.52550  -0.07125
C          C       0.72800   0.40224   0.96922  -0.07070
C          C       0.25788   0.20706   0.44833   0.18485
C          C       0.74445   0.21481   0.04514   0.18475
C          C       0.75527   0.70199   0.45399   0.18414
C          C       0.23721   0.67868   0.04829   0.18152
C          C       0.74637   0.79652   0.55307   0.18488
C          C       0.25507   0.79620   0.95478   0.18305
C          C       0.24359   0.29572   0.54620   0.18566
C          C       0.76100   0.30762   0.94931   0.18130
C          C       0.28343   0.34313   0.47509  -0.06961
C          C       0.71919   0.35248   0.01870  -0.07101
C          C       0.78267   0.83627   0.47842  -0.06780
C          C       0.21206   0.82130   0.02380  -0.06905
C          C       0.71883   0.66262   0.52857  -0.06993
C          C       0.28058   0.65544   0.97943  -0.06963
C          C       0.21775   0.16111   0.51932  -0.07146
C          C       0.78560   0.16691   0.97534  -0.06928
C          C       0.20002   0.96552   0.43991   0.08747
C          C       0.80081   0.96661   0.05441   0.08774
C          C       0.69750   0.46576   0.44902   0.08622
C          C       0.29687   0.44588   0.05633   0.08851
C          C       0.80415   0.03340   0.55733   0.08608
C          C       0.19705   0.03560   0.94723   0.08818
C          C       0.30090   0.53759   0.55522   0.09003
C          C       0.70347   0.55102   0.93965   0.08666
C          C       0.81530   0.92982   0.45211   0.08974
C          C       0.17826   0.91555   0.04865   0.08981
C          C       0.31708   0.43863   0.45087   0.09023
C          C       0.68493   0.44622   0.04262   0.09074
C          C       0.18398   0.06734   0.54365   0.09088
C          C       0.81895   0.06747   0.95106   0.08980
C          C       0.68539   0.57196   0.55440   0.09034
C          C       0.31531   0.56636   0.95500   0.09025
C          C       0.80297   0.04432   0.40951  -0.13161
C          C       0.18988   0.02357   0.09297  -0.13253
C          C       0.30573   0.55689   0.40879  -0.13356
C          C       0.69514   0.54664   0.08853  -0.13039
C          C       0.19492   0.95913   0.58785  -0.13377
C          C       0.80732   0.95786   0.90706  -0.13336
C          C       0.69648   0.44827   0.59538  -0.13477
C          C       0.30497   0.45680   0.91067  -0.13383
C          C       0.83231   0.15721   0.38963  -0.10193
C          C       0.16032   0.13540   0.11351  -0.10047
C          C       0.33615   0.66250   0.38859  -0.10019
C          C       0.66451   0.65072   0.10933  -0.10231
C          C       0.16459   0.85316   0.60798  -0.09986
C          C       0.83703   0.84647   0.88673  -0.09984
C          C       0.66578   0.34119   0.61472  -0.10328
C          C       0.33578   0.35178   0.89043  -0.09929
C          C       0.87502   0.15530   0.41099   0.05291
C          C       0.11802   0.14010   0.09065   0.05168
C          C       0.37888   0.65062   0.40959   0.05152
C          C       0.62266   0.65640   0.08503   0.05159
C          C       0.12222   0.85603   0.58535   0.05254
C          C       0.87941   0.84405   0.90935   0.05044
C          C       0.62297   0.35809   0.59429   0.05356
C          C       0.37809   0.35676   0.91322   0.05068
C          C       0.88765   0.03272   0.45172  -0.12394
C          C       0.10610   0.02594   0.04762  -0.12233
C          C       0.39037   0.52661   0.45031  -0.12265
C          C       0.61215   0.55058   0.04011  -0.12759
C          C       0.11100   0.97137   0.54268  -0.12666
C          C       0.89129   0.95920   0.95220  -0.12501
C          C       0.61173   0.48866   0.55506  -0.12360
C          C       0.38870   0.47286   0.95614  -0.12507
C          C       0.85809   0.92145   0.47227  -0.12728
C          C       0.13594   0.91514   0.02654  -0.12943
C          C       0.35974   0.42186   0.47099  -0.13099
C          C       0.64302   0.44636   0.01899  -0.12906
C          C       0.14163   0.07526   0.52175  -0.12660
C          C       0.86128   0.06925   0.97313  -0.12838
C          C       0.64265   0.59361   0.53502  -0.12789
C          C       0.35758   0.57590   0.97718  -0.12915
C          C       0.17572   0.00927   0.39351  -0.12883
C          C       0.82215   0.00738   0.10287  -0.12761
C          C       0.67458   0.51018   0.40175  -0.12884
C          C       0.31945   0.49011   0.10385  -0.12893
C          C       0.82878   0.98861   0.60343  -0.12790
C          C       0.17537  -0.00256   0.89881  -0.12781
C          C       0.32401   0.49227   0.60224  -0.12944
C          C       0.68157   0.50728   0.89169  -0.12761
C          C       0.14848   0.87567   0.36914  -0.10932
C          C       0.84719   0.87073   0.12927  -0.11145
C          C       0.64903   0.37574   0.37513  -0.10979
C          C       0.34646   0.35776   0.12925  -0.11155
C          C       0.85540   0.12284   0.62844  -0.11000
C          C       0.15053   0.13589   0.87292  -0.11085
C          C       0.34952   0.62686   0.62883  -0.11192
C          C       0.65487   0.63998   0.86599  -0.11363
C          C       0.14588   0.69422   0.38968   0.04610
C          C       0.85077   0.68920   0.10857   0.04581
C          C       0.64617   0.19286   0.39459   0.04571
C          C       0.35088   0.17684   0.10840   0.04623
C          C       0.85761   0.30520   0.60842   0.04591
C          C       0.14728   0.31674   0.89413   0.04673
C          C       0.35178   0.81059   0.60987   0.04670
C          C       0.65042   0.82073   0.88682   0.04702
C          C       0.17183   0.64720   0.43487  -0.10652
C          C       0.82775   0.64519   0.06109  -0.10746
C          C       0.67016   0.14618   0.44117  -0.10842
C          C       0.32680   0.12969   0.06183  -0.10666
C          C       0.83162   0.35273   0.56331  -0.10820
C          C       0.17016   0.35752   0.94193  -0.10652
C          C       0.32738   0.85848   0.56368  -0.10686
C          C       0.67414   0.86819   0.93360  -0.10679
C          C       0.19802   0.78263   0.46000  -0.13137
C          C       0.80348   0.78324   0.03418  -0.13063
C          C       0.69521   0.28160   0.46816  -0.12945
C          C       0.30053   0.26357   0.03592  -0.13079
C          C       0.80537   0.21771   0.53800  -0.13043
C          C       0.19447   0.21782   0.96820  -0.13039
C          C       0.30263   0.72263   0.53652  -0.13195
C          C       0.69989   0.73375   0.95993  -0.12846
C          C       0.90547   0.28236   0.39195   0.07582
C          C       0.08755   0.26888   0.10995   0.07490
C          C       0.41044   0.77121   0.39040   0.07451
C          C       0.59162   0.77888   0.10547   0.07526
C          C       0.09120   0.73464   0.60539   0.07394
C          C       0.90992   0.71797   0.88928   0.07577
C          C       0.59089   0.23731   0.61246   0.07344
C          C       0.40968   0.23487   0.89360   0.07648
C          C       0.11511   0.56392   0.36389   0.08452
C          C       0.87998   0.55810   0.13686   0.08226
C          C       0.61695   0.06195   0.36621   0.08260
C          C       0.38145   0.04859   0.13574   0.08302
C          C       0.88781   0.43573   0.63515   0.08311
C          C       0.11895   0.45002   0.86531   0.08288
C          C       0.38126   0.94071   0.63801   0.08306
C          C       0.61976   0.94868   0.85975   0.08156
C          C       0.99793   0.89788   0.25203   0.01077
C          C       0.50149   0.39381   0.25070   0.01412
C          C       0.00352   0.10880   0.74683   0.01296
C          C       0.49863   0.60844   0.74982   0.01423
N          N       0.10885   0.39619   0.38019  -0.29581
N          N       0.88752   0.38979   0.12125  -0.29657
N          N       0.60947   0.89482   0.38198  -0.29558
N          N       0.38931   0.88049   0.12010  -0.29819
N          N       0.89492   0.60216   0.61861  -0.29699
N          N       0.11012   0.61585   0.88155  -0.29574
N          N       0.38795   0.10886   0.62250  -0.29466
N          N       0.61235   0.11649   0.87582  -0.29537
N          N       0.89337   0.39827   0.35549  -0.29251
N          N       0.09955   0.38061   0.14763  -0.28932
N          N       0.39873   0.89091   0.35479  -0.29267
N          N       0.60310   0.88092   0.14533  -0.28842
N          N       0.10322   0.62738   0.64383  -0.29188
N          N       0.89815   0.61172   0.85033  -0.28834
N          N       0.60218   0.10783   0.64552  -0.29257
N          N       0.39783   0.11735   0.85725  -0.29072
F          F       0.26653   0.15775   0.40040  -0.13107
F          F       0.73539   0.16639   0.09258  -0.12811
F          F       0.76053   0.64885   0.40523  -0.12930
F          F       0.22715   0.61265   0.09394  -0.13153
F          F       0.74150   0.85042   0.60195  -0.13129
F          F       0.26468   0.86048   0.90891  -0.12996
F          F       0.23550   0.34254   0.59451  -0.12996
F          F       0.77080   0.36072   0.90247  -0.12918

