data_crystal

_audit_creation_method 'AiiDA-DDEC plugin'

_cell_length_a        29.09108
_cell_length_b         7.40345
_cell_length_c        27.94755

_cell_angle_alpha     90.25217
_cell_angle_beta     94.36563
_cell_angle_gamma     89.84569

_symmetry_space_group_name_Hall 'P 1'
_symmetry_space_group_name_H-M  'P 1'

loop_
_symmetry_equiv_pos_as_xyz
 'x,y,z'

loop_
_atom_site_label
_atom_site_type_symbol
_atom_site_fract_x
_atom_site_fract_y
_atom_site_fract_z
_atom_site_charge
H          H       0.75910   0.06871   0.39558   0.10900
H          H       0.23842   0.06769   0.10309   0.10791
H          H       0.26047   0.56944   0.39788   0.10873
H          H       0.73836   0.55755   0.09837   0.10782
H          H       0.23950   0.93568   0.60214   0.10739
H          H       0.75947   0.90962   0.89638   0.10658
H          H       0.74174   0.41726   0.59714   0.10727
H          H       0.26049   0.42254   0.90072   0.10859
H          H       0.81095   0.27648   0.35490   0.11345
H          H       0.18514   0.27394   0.14348   0.11335
H          H       0.31406   0.77384   0.35825   0.11281
H          H       0.68614   0.76228   0.14024   0.11368
H          H       0.18731   0.73092   0.64334   0.11256
H          H       0.81379   0.70582   0.85641   0.11324
H          H       0.68831   0.21736   0.63866   0.11248
H          H       0.31443   0.22425   0.85898   0.11274
H          H       0.92417   0.11960   0.45401   0.10567
H          H       0.07218   0.09005   0.04774   0.10632
H          H       0.42444   0.61821   0.46080   0.10662
H          H       0.57376   0.61546   0.03886   0.10633
H          H       0.07454   0.88465   0.54327   0.10655
H          H       0.92602   0.90185   0.95101   0.10578
H          H       0.57362   0.42705   0.54977   0.10619
H          H       0.42558   0.38675   0.96010   0.10533
H          H       0.87269   0.91312   0.49461   0.11374
H          H       0.12518   0.88741   0.00686   0.11522
H          H       0.37143   0.41459   0.50035   0.11393
H          H       0.62549   0.41034   0.99731   0.11441
H          H       0.12648   0.08613   0.50170   0.11459
H          H       0.87208   0.10137   0.99193   0.11578
H          H       0.62685   0.62119   0.50703   0.11618
H          H       0.37170   0.58051   0.00246   0.11373
H          H       0.16937   0.18081   0.38965   0.10702
H          H       0.82769   0.17698   0.10645   0.10649
H          H       0.67339   0.67204   0.38722   0.10745
H          H       0.32714   0.66677   0.11498   0.10778
H          H       0.83006   0.82790   0.60862   0.10746
H          H       0.17125   0.81357   0.89161   0.10552
H          H       0.32729   0.32587   0.61228   0.10747
H          H       0.67059   0.32538   0.88362   0.10623
H          H       0.12561   0.95147   0.33996   0.10207
H          H       0.87106   0.95105   0.15714   0.10300
H          H       0.63145   0.43964   0.33723   0.10338
H          H       0.37019   0.43888   0.16519   0.10400
H          H       0.87263   0.05815   0.65900   0.10422
H          H       0.13165   0.04699   0.83991   0.10317
H          H       0.37051   0.55594   0.66233   0.10332
H          H       0.62976   0.56095   0.83376   0.10175
H          H       0.17290   0.53460   0.43910   0.10695
H          H       0.82779   0.53019   0.05689   0.10720
H          H       0.67132   0.03382   0.44243   0.10754
H          H       0.32902   0.02359   0.06229   0.10832
H          H       0.83027   0.47100   0.55679   0.10927
H          H       0.17316   0.45797   0.94381   0.10701
H          H       0.32733   0.96870   0.56037   0.10706
H          H       0.67291   0.96621   0.93865   0.10702
H          H       0.21599   0.76432   0.48937   0.10552
H          H       0.78488   0.75654   0.00571   0.10659
H          H       0.71282   0.26678   0.49282   0.10634
H          H       0.28588   0.25181   0.01201   0.10700
H          H       0.78722   0.24180   0.50644   0.10785
H          H       0.21323   0.22499   0.99530   0.10676
H          H       0.28459   0.73891   0.51006   0.10599
H          H       0.71327   0.73103   0.98862   0.10602
H          H       0.25547   0.22761   0.41292   0.12013
H          H       0.74219   0.21790   0.08293   0.11904
H          H       0.75510   0.72273   0.41126   0.11933
H          H       0.24219   0.71089   0.09065   0.11925
H          H       0.74570   0.78527   0.58616   0.11982
H          H       0.25491   0.76484   0.91617   0.11900
H          H       0.24309   0.27713   0.58779   0.11963
H          H       0.75472   0.27105   0.90834   0.11998
H          H       0.90168   0.93017   0.25038   0.10312
H          H       0.09591   0.92373   0.24816   0.10336
H          H       0.40497   0.42998   0.25775   0.10477
H          H       0.59765   0.43040   0.24286   0.10534
H          H       0.10034   0.05750   0.74154   0.10436
H          H       0.90691   0.05661   0.75457   0.10519
H          H       0.59795   0.57689   0.74303   0.10354
H          H       0.40443   0.57278   0.75487   0.10366
H          H       0.05823   0.20766   0.22417   0.10961
H          H       0.93944   0.21054   0.27410   0.10926
H          H       0.55474   0.70816   0.22540   0.10750
H          H       0.44584   0.70293   0.27854   0.10780
H          H       0.94981   0.77246   0.77496   0.10742
H          H       0.06252   0.78528   0.72435   0.10869
H          H       0.44485   0.29660   0.77493   0.10881
H          H       0.55936   0.30202   0.72135   0.10819
H          H       0.02672   0.67655   0.30817   0.09521
H          H       0.96997   0.67832   0.19025   0.09497
H          H       0.52916   0.14842   0.30637   0.09495
H          H       0.47298   0.14733   0.19763   0.09592
H          H       0.97478   0.33875   0.69782   0.09466
H          H       0.03109   0.32664   0.80798   0.09545
H          H       0.47197   0.83918   0.69124   0.09526
H          H       0.52955   0.84570   0.80438   0.09575
H          H       0.85649   0.70241   0.29106   0.11817
H          H       0.14017   0.69125   0.20688   0.11754
H          H       0.35941   0.20651   0.29962   0.11974
H          H       0.64241   0.20450   0.20005   0.11867
H          H       0.14427   0.28564   0.69986   0.11794
H          H       0.86112   0.28263   0.79612   0.11874
H          H       0.64197   0.80308   0.70055   0.11836
H          H       0.35973   0.79682   0.79830   0.11908
H          H       0.00305   0.98984   0.35010   0.10772
H          H       0.99487   0.98392   0.14871   0.10717
H          H       0.51292   0.45566   0.35332   0.10901
H          H       0.49262   0.46383   0.15050   0.10873
H          H       0.99312   0.03375   0.64887   0.10889
H          H       0.00976   0.01540   0.85074   0.10716
H          H       0.49199   0.52793   0.64662   0.10695
H          H       0.50833   0.52844   0.84908   0.10908
H          H       0.05238   0.20084   0.40078   0.11549
H          H       0.94658   0.19616   0.09767   0.11453
H          H       0.56129   0.67464   0.40257   0.11596
H          H       0.44386   0.68047   0.10143   0.11451
H          H       0.94364   0.82400   0.59799   0.11656
H          H       0.05800   0.80170   0.90108   0.11628
H          H       0.44277   0.31096   0.59780   0.11534
H          H       0.55737   0.31340   0.89837   0.11540
H          H       0.98238   0.45136   0.34814   0.10197
H          H       0.01330   0.44922   0.14975   0.10181
H          H       0.48454   0.92954   0.34844   0.10384
H          H       0.51683   0.92776   0.15366   0.10255
H          H       0.01777   0.56242   0.65582   0.10325
H          H       0.98638   0.54694   0.85001   0.10328
H          H       0.51517   0.06266   0.64959   0.10261
H          H       0.48566   0.06631   0.84728   0.10288
H          H       0.10706   0.41463   0.27418   0.11131
H          H       0.89068   0.41519   0.22385   0.11217
H          H       0.60282   0.92117   0.27358   0.11023
H          H       0.39628   0.91181   0.23040   0.11099
H          H       0.89972   0.57023   0.72486   0.11003
H          H       0.11104   0.57723   0.77398   0.11215
H          H       0.39541   0.08666   0.72677   0.11191
H          H       0.60912   0.09444   0.77005   0.11155
H          H       0.93523   0.36085   0.39916   0.06646
H          H       0.05903   0.32979   0.10335   0.06601
H          H       0.43797   0.85110   0.40357   0.06745
H          H       0.56176   0.84770   0.09739   0.06715
H          H       0.06249   0.65127   0.60092   0.06731
H          H       0.94019   0.66288   0.89693   0.06512
H          H       0.55944   0.20364   0.60814   0.06487
H          H       0.43969   0.15607   0.90174   0.06705
H          H       0.10118   0.65436   0.32382   0.06473
H          H       0.89662   0.65324   0.17368   0.06363
H          H       0.60494   0.14552   0.32315   0.06350
H          H       0.39692   0.14180   0.18024   0.06398
H          H       0.90009   0.34747   0.67344   0.06309
H          H       0.10634   0.34014   0.82476   0.06395
H          H       0.39746   0.85023   0.67681   0.06477
H          H       0.60578   0.85668   0.81913   0.06341
C          C       0.02793   0.07841   0.28333   0.05233
C          C       0.97003   0.07795   0.21526   0.05140
C          C       0.53091   0.56279   0.28546   0.05236
C          C       0.47198   0.56383   0.21830   0.05332
C          C       0.97457   0.92159   0.71587   0.05224
C          C       0.03334   0.92069   0.78369   0.04915
C          C       0.47124   0.43287   0.71468   0.05040
C          C       0.53062   0.43365   0.78144   0.04982
C          C       0.96796   0.82467   0.27704   0.05541
C          C       0.02928   0.82169   0.22167   0.05872
C          C       0.47091   0.31004   0.27975   0.05460
C          C       0.53155   0.30896   0.22279   0.05589
C          C       0.03372   0.17715   0.72224   0.05503
C          C       0.97281   0.17205   0.77861   0.05379
C          C       0.53112   0.68749   0.71975   0.05632
C          C       0.47080   0.68831   0.77693   0.05576
C          C       0.91971   0.82819   0.27245  -0.14786
C          C       0.07750   0.82228   0.22609  -0.14964
C          C       0.42278   0.32293   0.27816  -0.14800
C          C       0.57958   0.32204   0.22306  -0.14882
C          C       0.08179   0.16601   0.72248  -0.14841
C          C       0.92464   0.16232   0.77571  -0.14725
C          C       0.57933   0.68071   0.72214  -0.15021
C          C       0.42265   0.67839   0.77559  -0.14964
C          C       0.91550   0.56452   0.32394   0.19789
C          C       0.08066   0.55678   0.17435   0.19675
C          C       0.41824   0.05603   0.32832   0.19851
C          C       0.58327   0.05331   0.17260   0.20070
C          C       0.08475   0.43794   0.67383   0.19770
C          C       0.91976   0.42922   0.82666   0.19792
C          C       0.58251   0.94674   0.67122   0.19862
C          C       0.41893   0.94422   0.82708   0.19962
C          C       0.05699   0.20326   0.26290  -0.11499
C          C       0.94096   0.20464   0.23540  -0.11333
C          C       0.55627   0.69827   0.26425  -0.11725
C          C       0.44509   0.69520   0.23966  -0.11589
C          C       0.94836   0.78657   0.73619  -0.11493
C          C       0.06166   0.79216   0.76311  -0.11481
C          C       0.44419   0.30322   0.73607  -0.11438
C          C       0.55887   0.30667   0.76018  -0.11490
C          C       0.98936   0.68721   0.30546  -0.11530
C          C       0.00736   0.68544   0.19301  -0.11682
C          C       0.49209   0.16678   0.30614  -0.11628
C          C       0.50997   0.16506   0.19680  -0.11636
C          C       0.01182   0.32209   0.69716  -0.11743
C          C       0.99385   0.31248   0.80642  -0.11536
C          C       0.50925   0.82708   0.69245  -0.11674
C          C       0.49239   0.82988   0.80392  -0.11613
C          C       0.89396   0.70016   0.29524  -0.15365
C          C       0.10269   0.69201   0.20298  -0.15092
C          C       0.39686   0.19762   0.30165  -0.15634
C          C       0.60503   0.19556   0.19890  -0.15591
C          C       0.10688   0.29448   0.69908  -0.15344
C          C       0.89858   0.28916   0.79904  -0.15121
C          C       0.60449   0.80791   0.69838  -0.15084
C          C       0.39717   0.80415   0.79993  -0.15360
C          C       0.02594   0.08191   0.33328  -0.14261
C          C       0.97224   0.07864   0.16534  -0.14313
C          C       0.53238   0.55780   0.33570  -0.14186
C          C       0.47168   0.56186   0.16815  -0.14322
C          C       0.97290   0.93193   0.66570  -0.14243
C          C       0.03187   0.91986   0.83371  -0.14208
C          C       0.47094   0.43183   0.66448  -0.14432
C          C       0.52999   0.43259   0.83154  -0.14215
C          C       0.08271   0.32347   0.34130   0.19822
C          C       0.91563   0.32164   0.15677   0.19928
C          C       0.58465   0.81531   0.34208   0.19758
C          C       0.41678   0.81163   0.16193   0.19828
C          C       0.91879   0.68081   0.65750   0.19976
C          C       0.08763   0.67367   0.84143   0.20023
C          C       0.41607   0.18276   0.65848   0.19881
C          C       0.58595   0.18673   0.83795   0.20046
C          C       0.05321   0.20119   0.36193  -0.16603
C          C       0.94531   0.19779   0.13647  -0.16563
C          C       0.55904   0.68153   0.36358  -0.16277
C          C       0.44445   0.68361   0.14039  -0.16305
C          C       0.94538   0.81377   0.63691  -0.16711
C          C       0.05872   0.79924   0.86220  -0.16687
C          C       0.44361   0.30959   0.63678  -0.16485
C          C       0.55731   0.31146   0.85942  -0.16438
C          C       0.96410   0.55950   0.32849  -0.16959
C          C       0.03207   0.55550   0.16976  -0.16643
C          C       0.46670   0.04217   0.33020  -0.17172
C          C       0.53487   0.04020   0.17186  -0.17217
C          C       0.03634   0.44983   0.67324  -0.17183
C          C       0.96832   0.43815   0.83026  -0.17038
C          C       0.53395   0.95439   0.66867  -0.16706
C          C       0.46741   0.95531   0.82862  -0.17119
C          C       0.08429   0.32230   0.29111  -0.17391
C          C       0.91369   0.32269   0.20696  -0.17418
C          C       0.58311   0.82096   0.29164  -0.17198
C          C       0.41741   0.81533   0.21237  -0.17287
C          C       0.92042   0.67012   0.70787  -0.17272
C          C       0.08882   0.67224   0.79116  -0.17486
C          C       0.41661   0.18217   0.70886  -0.17375
C          C       0.58660   0.18704   0.78763  -0.17388
C          C       0.22169   0.12538   0.47296   0.02575
C          C       0.77648   0.11777   0.02273   0.02528
C          C       0.72233   0.62506   0.47250   0.02394
C          C       0.27676   0.61150   0.03048   0.02443
C          C       0.77865   0.88171   0.52498   0.02505
C          C       0.22090   0.86503   0.97647   0.02463
C          C       0.27692   0.37911   0.52780   0.02379
C          C       0.72070   0.37169   0.96868   0.02345
C          C       0.25187   0.24175   0.45126  -0.17332
C          C       0.74578   0.23242   0.04466  -0.17367
C          C       0.75218   0.73949   0.44963  -0.17212
C          C       0.24602   0.72611   0.05244  -0.17215
C          C       0.74859   0.76811   0.54781  -0.17376
C          C       0.25138   0.74968   0.95444  -0.17053
C          C       0.24672   0.26276   0.54947  -0.17204
C          C       0.75107   0.25561   0.94661  -0.17042
C          C       0.21878   0.13716   0.52328   0.02450
C          C       0.77931   0.13042   0.97247   0.02510
C          C       0.72012   0.64152   0.52280   0.02586
C          C       0.27972   0.62488   0.98024   0.02257
C          C       0.78055   0.86647   0.47461   0.02420
C          C       0.21781   0.85137   0.02665   0.02384
C          C       0.27983   0.36707   0.47747   0.02420
C          C       0.71760   0.35781   0.01889   0.02363
C          C       0.19592   0.98857   0.44296   0.07763
C          C       0.80288   0.98273   0.05262   0.07737
C          C       0.69659   0.48585   0.44335   0.07580
C          C       0.30289   0.47522   0.06020   0.07716
C          C       0.80492   0.01895   0.55432   0.07735
C          C       0.19578   0.00340   0.94664   0.07682
C          C       0.30253   0.51632   0.55780   0.07700
C          C       0.69574   0.51175   0.93920   0.07854
C          C       0.81228   0.97797   0.44820   0.07668
C          C       0.18534   0.96382   0.05226   0.07826
C          C       0.31226   0.47925   0.45219   0.07705
C          C       0.68549   0.47031   0.04489   0.07801
C          C       0.18669   0.02402   0.54884   0.07694
C          C       0.81209   0.01847   0.94704   0.07602
C          C       0.68783   0.53230   0.54928   0.07831
C          C       0.31250   0.51489   0.95442   0.07741
C          C       0.79545   0.07781   0.40774  -0.13714
C          C       0.20182   0.07056   0.09172  -0.13800
C          C       0.29656   0.57811   0.41114  -0.13862
C          C       0.70207   0.56784   0.08603  -0.13735
C          C       0.20322   0.92593   0.58973  -0.13884
C          C       0.79606   0.90927   0.90786  -0.13517
C          C       0.70482   0.42059   0.58733  -0.13837
C          C       0.29683   0.41647   0.91312  -0.13879
C          C       0.82411   0.19464   0.38515  -0.10174
C          C       0.17244   0.18609   0.11413  -0.10197
C          C       0.32608   0.69284   0.38909  -0.10095
C          C       0.67327   0.68314   0.10923  -0.10164
C          C       0.17440   0.81093   0.61263  -0.09998
C          C       0.82594   0.79491   0.88573  -0.10277
C          C       0.67532   0.30900   0.61045  -0.10216
C          C       0.32664   0.30534   0.88990  -0.10001
C          C       0.87071   0.21395   0.40205   0.04992
C          C       0.12540   0.19623   0.09823   0.04977
C          C       0.37239   0.71099   0.40710   0.04899
C          C       0.62677   0.70421   0.09217   0.04768
C          C       0.12778   0.79208   0.59573   0.04786
C          C       0.87301   0.78874   0.90167   0.04996
C          C       0.62765   0.30953   0.59705   0.04937
C          C       0.37336   0.29103   0.90687   0.04917
C          C       0.88799   0.10834   0.44118  -0.12650
C          C       0.10860   0.08471   0.05993  -0.12670
C          C       0.38854   0.60717   0.44697  -0.12744
C          C       0.60980   0.60222   0.05204  -0.12703
C          C       0.11075   0.89546   0.55607  -0.12511
C          C       0.88942   0.90337   0.93941  -0.12676
C          C       0.61049   0.42553   0.56011  -0.12502
C          C       0.38938   0.39450   0.94710  -0.12732
C          C       0.85923   0.99184   0.46388  -0.12951
C          C       0.13818   0.97060   0.03707  -0.13101
C          C       0.35889   0.49285   0.46919  -0.12888
C          C       0.63872   0.48682   0.02870  -0.13009
C          C       0.13982   0.00914   0.53279  -0.12976
C          C       0.85934   0.01584   0.96209  -0.13065
C          C       0.64020   0.53436   0.53619  -0.13117
C          C       0.35935   0.50416   0.97072  -0.12907
C          C       0.17103   0.03900   0.40001  -0.13847
C          C       0.82676   0.03490   0.09607  -0.13672
C          C       0.67411   0.53154   0.39872  -0.13701
C          C       0.32634   0.52522   0.10407  -0.13804
C          C       0.82874   0.96944   0.59797  -0.13908
C          C       0.17305   0.95538   0.90226  -0.13775
C          C       0.32624   0.46724   0.60152  -0.13818
C          C       0.67257   0.46649   0.89483  -0.13859
C          C       0.14652   0.91028   0.37211  -0.11651
C          C       0.85119   0.90794   0.12448  -0.11718
C          C       0.65056   0.40092   0.37067  -0.11674
C          C       0.35065   0.39703   0.13220  -0.11689
C          C       0.85291   0.09831   0.62605  -0.11756
C          C       0.15066   0.08615   0.87345  -0.11656
C          C       0.35055   0.59620   0.62952  -0.11655
C          C       0.64973   0.59878   0.86685  -0.11617
C          C       0.14643   0.72814   0.38620   0.04117
C          C       0.85226   0.72538   0.11045   0.04044
C          C       0.64869   0.22098   0.38632   0.03975
C          C       0.35228   0.21547   0.11733   0.04170
C          C       0.85427   0.27936   0.61128   0.03979
C          C       0.15009   0.26794   0.88819   0.03922
C          C       0.35177   0.77729   0.61472   0.04024
C          C       0.64943   0.77992   0.88219   0.04015
C          C       0.17232   0.67620   0.42854  -0.10519
C          C       0.82754   0.67193   0.06749  -0.10408
C          C       0.67211   0.17352   0.43044  -0.10323
C          C       0.32814   0.16424   0.07381  -0.10611
C          C       0.82973   0.33037   0.56807  -0.10512
C          C       0.17335   0.31711   0.93235  -0.10233
C          C       0.32698   0.82805   0.57163  -0.10431
C          C       0.67311   0.82638   0.92634  -0.10274
C          C       0.19648   0.80492   0.45646  -0.13151
C          C       0.80345   0.79888   0.03904  -0.13284
C          C       0.69541   0.30430   0.45852  -0.13327
C          C       0.30400   0.29231   0.04577  -0.13246
C          C       0.80555   0.20174   0.54007  -0.13238
C          C       0.19571   0.18646   0.96107  -0.13314
C          C       0.30298   0.69916   0.54365  -0.13061
C          C       0.69572   0.69413   0.95428  -0.13294
C          C       0.90060   0.34466   0.38087   0.07461
C          C       0.09470   0.32479   0.11953   0.07507
C          C       0.40304   0.83823   0.38574   0.07742
C          C       0.59696   0.83369   0.11446   0.07654
C          C       0.09794   0.66268   0.61751   0.07717
C          C       0.90445   0.66215   0.88082   0.07612
C          C       0.59630   0.18840   0.61961   0.07673
C          C       0.40433   0.16541   0.88477   0.07508
C          C       0.11757   0.60088   0.35769   0.07920
C          C       0.88080   0.59896   0.13956   0.08187
C          C       0.62015   0.09305   0.35765   0.07997
C          C       0.38108   0.08854   0.14602   0.08064
C          C       0.88350   0.40447   0.64008   0.08020
C          C       0.12234   0.39563   0.85869   0.08129
C          C       0.38093   0.90421   0.64305   0.07942
C          C       0.62146   0.90929   0.85351   0.08062
C          C       0.99883   0.95095   0.24937   0.01005
C          C       0.50143   0.43573   0.25162   0.01091
C          C       0.00379   0.04774   0.75013   0.01370
C          C       0.50093   0.56101   0.74811   0.01382
N          N       0.11016   0.43813   0.37167  -0.29374
N          N       0.88846   0.43537   0.12596  -0.29616
N          N       0.61180   0.93194   0.37225  -0.29915
N          N       0.38893   0.92581   0.13187  -0.29748
N          N       0.89086   0.56830   0.62693  -0.29759
N          N       0.11497   0.55966   0.87203  -0.29551
N          N       0.38825   0.06679   0.62888  -0.29550
N          N       0.61362   0.07170   0.86794  -0.29651
N          N       0.88640   0.43926   0.34386  -0.29769
N          N       0.10959   0.42997   0.15434  -0.30051
N          N       0.38893   0.93343   0.34884  -0.29749
N          N       0.61198   0.92939   0.15115  -0.29744
N          N       0.11328   0.56339   0.65318  -0.29817
N          N       0.89007   0.55287   0.84675  -0.30018
N          N       0.61184   0.06818   0.65016  -0.30425
N          N       0.38985   0.06695   0.84840  -0.29803

