data_crystal

_audit_creation_method 'AiiDA-DDEC plugin'

_cell_length_a        31.45599
_cell_length_b         7.33230
_cell_length_c        24.98660

_cell_angle_alpha     90.16160
_cell_angle_beta     95.23247
_cell_angle_gamma     90.02928

_symmetry_space_group_name_Hall 'P 1'
_symmetry_space_group_name_H-M  'P 1'

loop_
_symmetry_equiv_pos_as_xyz
 'x,y,z'

loop_
_atom_site_label
_atom_site_type_symbol
_atom_site_fract_x
_atom_site_fract_y
_atom_site_fract_z
_atom_site_charge
H          H       0.91286   0.92871   0.26619   0.10546
H          H       0.08802   0.92276   0.22993   0.10549
H          H       0.41067   0.41407   0.26201   0.10382
H          H       0.58811   0.41866   0.24135   0.10520
H          H       0.09150   0.08747   0.73876   0.10378
H          H       0.91349   0.07594   0.75927   0.10525
H          H       0.58922   0.58295   0.73502   0.10460
H          H       0.41254   0.58393   0.76134   0.10400
H          H       0.05092   0.18822   0.21653   0.10587
H          H       0.95290   0.19654   0.28062   0.10369
H          H       0.54927   0.69020   0.22006   0.10552
H          H       0.44808   0.69040   0.28121   0.10743
H          H       0.95456   0.80117   0.78109   0.10493
H          H       0.05482   0.81476   0.71995   0.10696
H          H       0.45136   0.31073   0.78026   0.10686
H          H       0.55236   0.31694   0.71721   0.10654
H          H       0.02763   0.62037   0.30590   0.09728
H          H       0.97213   0.61945   0.19179   0.09550
H          H       0.52726   0.13468   0.31376   0.09590
H          H       0.47235   0.12928   0.19113   0.09655
H          H       0.97446   0.36988   0.69066   0.09483
H          H       0.02792   0.37163   0.81204   0.09684
H          H       0.47312   0.87822   0.69159   0.09595
H          H       0.52886   0.86900   0.81185   0.09671
H          H       0.87259   0.70415   0.31498   0.11835
H          H       0.12742   0.69389   0.18193   0.11648
H          H       0.37017   0.18271   0.30855   0.11722
H          H       0.62890   0.19363   0.19286   0.11805
H          H       0.13116   0.31878   0.69148   0.11741
H          H       0.87135   0.29936   0.80629   0.11909
H          H       0.62916   0.81223   0.68743   0.11753
H          H       0.37221   0.81015   0.81005   0.11781
H          H       0.01603   0.93762   0.36154   0.10742
H          H       0.98452   0.93678   0.13509   0.10747
H          H       0.51198   0.44980   0.36527   0.10805
H          H       0.48900   0.44220   0.13861   0.10679
H          H       0.98891   0.05856   0.63696   0.10776
H          H       0.01286   0.04997   0.86373   0.10723
H          H       0.48882   0.55737   0.63602   0.10747
H          H       0.51338   0.55012   0.86294   0.10654
H          H       0.06451   0.15108   0.41501   0.11405
H          H       0.93566   0.14948   0.08225   0.11595
H          H       0.55941   0.66762   0.41877   0.11479
H          H       0.44170   0.65280   0.08262   0.11523
H          H       0.94067   0.84551   0.58269   0.11509
H          H       0.05948   0.83329   0.91840   0.11515
H          H       0.44115   0.34313   0.58168   0.11462
H          H       0.56047   0.33185   0.91591   0.11481
H          H       0.98805   0.39892   0.35463   0.10395
H          H       0.01111   0.39114   0.14418   0.10308
H          H       0.48755   0.90816   0.36058   0.10237
H          H       0.51239   0.90780   0.14263   0.10376
H          H       0.01364   0.59821   0.64376   0.10311
H          H       0.98641   0.59179   0.85878   0.10323
H          H       0.51240   0.10347   0.64380   0.10200
H          H       0.48915   0.09282   0.85994   0.10307
H          H       0.10074   0.39045   0.26884   0.11111
H          H       0.90342   0.40028   0.22921   0.11079
H          H       0.59734   0.89974   0.27236   0.11050
H          H       0.40003   0.89237   0.22636   0.11062
H          H       0.90513   0.59874   0.72821   0.11086
H          H       0.10231   0.60764   0.77345   0.11184
H          H       0.40265   0.10586   0.72714   0.11064
H          H       0.60022   0.10692   0.76918   0.11064
H          H       0.17699   0.14479   0.37937   0.11262
H          H       0.82381   0.14525   0.11937   0.11274
H          H       0.67077   0.66050   0.38357   0.11331
H          H       0.32592   0.63972   0.11924   0.11324
H          H       0.82797   0.85285   0.61832   0.11291
H          H       0.17200   0.84344   0.88401   0.11056
H          H       0.32485   0.35778   0.62083   0.11349
H          H       0.67159   0.33975   0.87904   0.11197
H          H       0.87063   0.83894   0.51060   0.11071
H          H       0.12835   0.81436   0.99066   0.10962
H          H       0.37202   0.34063   0.51482   0.10996
H          H       0.62686   0.32594   0.99328   0.11235
H          H       0.12939   0.15744   0.48556   0.11001
H          H       0.86732   0.16082   0.00730   0.11152
H          H       0.62902   0.67990   0.49237   0.11105
H          H       0.37064   0.67704   0.00763   0.11071
H          H       0.77610   0.04230   0.39026   0.11049
H          H       0.22170   0.02514   0.11176   0.11094
H          H       0.27896   0.52168   0.38940   0.11123
H          H       0.72387   0.54245   0.10867   0.11053
H          H       0.22208   0.98505   0.61230   0.11084
H          H       0.77181   0.93254   0.89213   0.11056
H          H       0.72411   0.46521   0.61007   0.11027
H          H       0.27592   0.44992   0.89120   0.11092
H          H       0.83086   0.24621   0.35521   0.10911
H          H       0.16644   0.23237   0.14468   0.10848
H          H       0.33309   0.73189   0.35560   0.10822
H          H       0.66994   0.75074   0.14411   0.10978
H          H       0.16790   0.77791   0.64740   0.10888
H          H       0.82710   0.73136   0.85666   0.10903
H          H       0.66916   0.26035   0.64469   0.10904
H          H       0.33140   0.24677   0.85697   0.10856
H          H       0.92514   0.04140   0.47517   0.10395
H          H       0.07349   0.02017   0.02383   0.10357
H          H       0.42572   0.55054   0.48100   0.10372
H          H       0.57323   0.53286   0.02914   0.10401
H          H       0.07547   0.95063   0.52055   0.10464
H          H       0.92241   0.96234   0.97115   0.10365
H          H       0.57454   0.47481   0.52673   0.10406
H          H       0.42607   0.47994   0.97199   0.10311
H          H       0.13025   0.90961   0.33286   0.10285
H          H       0.87192   0.91387   0.16472   0.10340
H          H       0.62346   0.42644   0.33762   0.10132
H          H       0.37375   0.40490   0.16378   0.10243
H          H       0.87581   0.08639   0.66343   0.10235
H          H       0.12576   0.07950   0.83756   0.10086
H          H       0.37288   0.59161   0.66529   0.10260
H          H       0.62574   0.57553   0.83218   0.10221
H          H       0.17266   0.51662   0.45412   0.10674
H          H       0.82603   0.51109   0.04738   0.10651
H          H       0.67232   0.02325   0.45229   0.10600
H          H       0.32839   0.01071   0.04348   0.10636
H          H       0.82768   0.48804   0.54773   0.10679
H          H       0.17309   0.47852   0.95535   0.10539
H          H       0.32888   0.98426   0.54466   0.10613
H          H       0.67148   0.97381   0.95100   0.10588
H          H       0.21674   0.75618   0.50250   0.10719
H          H       0.77942   0.74565   0.00079   0.10579
H          H       0.71792   0.25942   0.49964   0.10569
H          H       0.28280   0.24868   0.99745   0.10637
H          H       0.78168   0.25098   0.50087   0.10743
H          H       0.21755   0.23957   0.00304   0.10755
H          H       0.28310   0.74578   0.49818   0.10669
H          H       0.71529   0.73479  -0.00065   0.10569
H          H       0.94502   0.28028   0.41347   0.06948
H          H       0.05409   0.27601   0.08228   0.07118
H          H       0.44375   0.80278   0.42044   0.07109
H          H       0.55574   0.78748   0.08654   0.06852
H          H       0.05708   0.70435   0.58233   0.07099
H          H       0.94238   0.71862   0.91126   0.06806
H          H       0.55564   0.22316   0.58533   0.06981
H          H       0.44590   0.22691   0.91312   0.06877
H          H       0.10164   0.62052   0.32486   0.06290
H          H       0.90111   0.62541   0.17215   0.06181
H          H       0.59719   0.13247   0.32761   0.06230
H          H       0.40177   0.11816   0.17074   0.06181
H          H       0.90372   0.37484   0.67157   0.06208
H          H       0.10002   0.37289   0.82807   0.06182
H          H       0.40235   0.87819   0.67139   0.06150
H          H       0.59867   0.86955   0.82364   0.06200
H          H       0.26619   0.18919   0.36377   0.13232
H          H       0.73686   0.20924   0.13870   0.13268
H          H       0.75895   0.70224   0.36208   0.13362
H          H       0.23887   0.68979   0.13868   0.13231
H          H       0.73889   0.79421   0.63904   0.13269
H          H       0.25884   0.79747   0.86291   0.13344
H          H       0.18917   0.38803   0.60250   0.13596
H          H       0.75696   0.26176   0.86117   0.13348
H          H       0.26653   0.96874   0.39186   0.13246
H          H       0.73520   0.98281   0.11425   0.13204
H          H       0.76345   0.48132   0.39007   0.13290
H          H       0.23798   0.46663   0.11204   0.13270
H          H       0.73996   0.02016   0.61497   0.13176
H          H       0.26249   0.01932   0.89081   0.13226
H          H       0.23768   0.31556   0.63742   0.13115
H          H       0.75803   0.49071   0.88355   0.13274
H          H       0.31300   0.10862   0.40079   0.13659
H          H       0.68881   0.12286   0.10590   0.13591
H          H       0.80835   0.63059   0.39515   0.13550
H          H       0.19099   0.60350   0.10529   0.13613
H          H       0.69203   0.88979   0.60618   0.13628
H          H       0.30789   0.87283   0.89610   0.13519
H          H       0.23456   0.53453   0.60840   0.13172
H          H       0.80482   0.35325   0.89292   0.13631
C          C       0.03005   0.04505   0.28476   0.05107
C          C       0.97168   0.04719   0.21217   0.04934
C          C       0.52766   0.55092   0.28852   0.04963
C          C       0.47121   0.54660   0.21417   0.04841
C          C       0.97465   0.94901   0.71324   0.05124
C          C       0.03108   0.95231   0.78759   0.04941
C          C       0.47279   0.45393   0.71246   0.04952
C          C       0.52990   0.45299   0.78590   0.05018
C          C       0.97373   0.79322   0.28220   0.05437
C          C       0.02664   0.79017   0.21464   0.05424
C          C       0.47234   0.29388   0.28455   0.05399
C          C       0.52680   0.29337   0.21950   0.05740
C          C       0.02949   0.20831   0.71793   0.05265
C          C       0.97441   0.20368   0.78260   0.05585
C          C       0.52774   0.71091   0.71677   0.05448
C          C       0.47412   0.70736   0.78307   0.05473
C          C       0.92986   0.81496   0.28587  -0.14946
C          C       0.07055   0.80909   0.21068  -0.15022
C          C       0.42784   0.30528   0.28399  -0.14756
C          C       0.57113   0.30920   0.21924  -0.15296
C          C       0.07393   0.19651   0.71736  -0.14649
C          C       0.92999   0.18617   0.78160  -0.14997
C          C       0.57191   0.69461   0.71467  -0.14967
C          C       0.42976   0.69286   0.78343  -0.14841
C          C       0.92680   0.53639   0.33851   0.19720
C          C       0.07261   0.52688   0.15927   0.19445
C          C       0.42556   0.03127   0.33863   0.19686
C          C       0.57410   0.03660   0.16367   0.19673
C          C       0.07567   0.47261   0.66340   0.19749
C          C       0.92524   0.45927   0.83672   0.19862
C          C       0.57413   0.97225   0.66169   0.19963
C          C       0.42720   0.96636   0.83882   0.19604
C          C       0.05394   0.17748   0.26005  -0.11626
C          C       0.94900   0.18332   0.23717  -0.11399
C          C       0.55154   0.68283   0.26363  -0.11321
C          C       0.44649   0.67894   0.23772  -0.11227
C          C       0.95139   0.81373   0.73763  -0.11506
C          C       0.05611   0.82243   0.76346  -0.11615
C          C       0.44885   0.32088   0.73674  -0.11359
C          C       0.55427   0.32297   0.76079  -0.11772
C          C       0.99382   0.64313   0.30897  -0.11570
C          C       0.00598   0.63990   0.18846  -0.11845
C          C       0.49293   0.15028   0.31381  -0.11703
C          C       0.50656   0.14795   0.19035  -0.11605
C          C       0.00869   0.35355   0.68961  -0.11574
C          C       0.99370   0.35087   0.81195  -0.11498
C          C       0.50716   0.85881   0.68947  -0.11656
C          C       0.49460   0.85184   0.81245  -0.11659
C          C       0.90684   0.68891   0.31325  -0.15281
C          C       0.09315   0.67992   0.18378  -0.15309
C          C       0.40482   0.17571   0.31010  -0.15350
C          C       0.59435   0.18302   0.19203  -0.15158
C          C       0.09659   0.32648   0.69089  -0.15570
C          C       0.90592   0.31151   0.80802  -0.15312
C          C       0.59470   0.82294   0.68791  -0.15477
C          C       0.40676   0.81996   0.81065  -0.15183
C          C       0.03407   0.03827   0.34106  -0.14339
C          C       0.96696   0.03862   0.15587  -0.14166
C          C       0.53043   0.54896   0.34481  -0.14266
C          C       0.46958   0.54086   0.15793  -0.14176
C          C       0.97085   0.95702   0.65700  -0.14287
C          C       0.03234   0.95305   0.84381  -0.14270
C          C       0.47009   0.45845   0.65616  -0.14306
C          C       0.53216   0.45262   0.84219  -0.14194
C          C       0.08534   0.28899   0.34632   0.20063
C          C       0.91642   0.29168   0.15136   0.20082
C          C       0.58134   0.80079   0.34982   0.19849
C          C       0.41776   0.78808   0.15016   0.20091
C          C       0.91979   0.70590   0.65112   0.20126
C          C       0.08380   0.70366   0.85026   0.20229
C          C       0.41863   0.20867   0.65006   0.20011
C          C       0.58324   0.20175   0.84675   0.20227
C          C       0.06126   0.15811   0.37135  -0.16489
C          C       0.93971   0.15856   0.12590  -0.16701
C          C       0.55691   0.67170   0.37506  -0.16540
C          C       0.44318   0.65925   0.12628  -0.16779
C          C       0.94383   0.83744   0.62634  -0.16697
C          C       0.05829   0.83084   0.87474  -0.16778
C          C       0.44339   0.33794   0.62538  -0.16673
C          C       0.55845   0.32935   0.87220  -0.16733
C          C       0.97125   0.51697   0.33684  -0.17228
C          C       0.02814   0.51024   0.16114  -0.17167
C          C       0.47040   0.02150   0.34062  -0.17093
C          C       0.52934   0.02207   0.16261  -0.17099
C          C       0.03093   0.48341   0.66272  -0.17191
C          C       0.97002   0.47626   0.83872  -0.17164
C          C       0.52951   0.98709   0.66214  -0.17167
C          C       0.47199   0.97912   0.83996  -0.16978
C          C       0.08169   0.29476   0.28976  -0.17486
C          C       0.92137   0.30125   0.20788  -0.17487
C          C       0.57841   0.80350   0.29325  -0.17336
C          C       0.41967   0.79535   0.20667  -0.17759
C          C       0.92381   0.69686   0.70764  -0.17533
C          C       0.08255   0.70244   0.79378  -0.17593
C          C       0.42172   0.20262   0.70662  -0.17504
C          C       0.58096   0.20170   0.79022  -0.17347
C          C       0.22681   0.11250   0.47234  -0.04105
C          C       0.77119   0.10395   0.02843  -0.03729
C          C       0.72533   0.62000   0.47268  -0.04113
C          C       0.27379   0.60446   0.02796  -0.04034
C          C       0.77428   0.89223   0.52867  -0.04057
C          C       0.22498   0.87927   0.97378  -0.04119
C          C       0.27418   0.38957   0.52828  -0.03760
C          C       0.72302   0.37567   0.97122  -0.04139
C          C       0.26299   0.18438   0.45038   0.07756
C          C       0.73672   0.18517   0.05184   0.07809
C          C       0.76059   0.69462   0.44936   0.07872
C          C       0.23852   0.67733   0.05175   0.07914
C          C       0.73941   0.81606   0.55233   0.07728
C          C       0.26020   0.80607   0.94998   0.07788
C          C       0.23821   0.31713   0.55047   0.07537
C          C       0.75733   0.29322   0.94766   0.08032
C          C       0.28631   0.32422   0.47863  -0.04052
C          C       0.71317   0.32252   0.02305  -0.04008
C          C       0.78463   0.83245   0.47760  -0.04070
C          C       0.21427   0.81518   0.02415  -0.04012
C          C       0.71516   0.67946   0.52384  -0.04121
C          C       0.28421   0.66724   0.97736  -0.04003
C          C       0.21478   0.17763   0.52215  -0.03898
C          C       0.78115   0.15719   0.97670  -0.04264
C          C       0.17669   0.00643   0.39503  -0.13514
C          C       0.82351   0.00562   0.10438  -0.13269
C          C       0.67194   0.52017   0.39777  -0.13598
C          C       0.32597   0.50144   0.10329  -0.13361
C          C       0.82721   0.99258   0.60361  -0.13366
C          C       0.17289   0.98331   0.89878  -0.13236
C          C       0.32513   0.49545   0.60467  -0.13365
C          C       0.67214   0.47909   0.89423  -0.13312
C          C       0.86208   0.92593   0.47602  -0.13318
C          C       0.13654   0.90395   0.02493  -0.13290
C          C       0.36368   0.42439   0.47948  -0.13395
C          C       0.63617   0.41766   0.02666  -0.13352
C          C       0.13753   0.07618   0.52146  -0.13291
C          C       0.85867   0.06881   0.97376  -0.13360
C          C       0.63768   0.58927   0.52605  -0.13217
C          C       0.36219   0.58503   0.97402  -0.13278
C          C       0.81965   0.92826   0.45297   0.09160
C          C       0.17876   0.90806   0.04868   0.09156
C          C       0.32179   0.41904   0.45471   0.09256
C          C       0.67899   0.42266   0.04811   0.09308
C          C       0.17937   0.08304   0.54630   0.09067
C          C       0.81593   0.05899   0.95217   0.09317
C          C       0.68021   0.58400   0.54855   0.09234
C          C       0.31950   0.57430   0.95228   0.09165
C          C       0.80900   0.04035   0.40809  -0.13636
C          C       0.18894   0.02220   0.09340  -0.13591
C          C       0.31142   0.52581   0.40863  -0.13680
C          C       0.69069   0.53927   0.09186  -0.13576
C          C       0.18962   0.97946   0.59308  -0.13544
C          C       0.80502   0.94034   0.90869  -0.13764
C          C       0.69110   0.46889   0.59266  -0.13530
C          C       0.30897   0.45706   0.90835  -0.13777
C          C       0.83913   0.15467   0.38869  -0.10801
C          C       0.15859   0.13807   0.11163  -0.10938
C          C       0.34110   0.64324   0.38983  -0.10666
C          C       0.66108   0.65575   0.11151  -0.10777
C          C       0.15989   0.86361   0.61251  -0.10774
C          C       0.83542   0.82775   0.88907  -0.10563
C          C       0.66094   0.35440   0.61181  -0.10824
C          C       0.33949   0.34384   0.88927  -0.10798
C          C       0.88125   0.15875   0.41321   0.04744
C          C       0.11682   0.14206   0.08600   0.04729
C          C       0.38244   0.65679   0.41634   0.04832
C          C       0.61860   0.65809   0.08814   0.04814
C          C       0.11857   0.84849   0.58593   0.04646
C          C       0.87802   0.83215   0.91196   0.04689
C          C       0.61878   0.35197   0.58740   0.04688
C          C       0.38192   0.34722   0.91281   0.04677
C          C       0.89253   0.04009   0.45630  -0.12187
C          C       0.10587   0.02010   0.04345  -0.11991
C          C       0.39367   0.54281   0.46056  -0.12315
C          C       0.60627   0.53431   0.04653  -0.12316
C          C       0.10748   0.95958   0.54104  -0.12269
C          C       0.88941   0.95680   0.95370  -0.12207
C          C       0.60725   0.47407   0.54529  -0.12226
C          C       0.39314   0.47314   0.95427  -0.12060
C          C       0.15054   0.87430   0.36903  -0.11594
C          C       0.85051   0.87566   0.12973  -0.11873
C          C       0.64538   0.38875   0.37210  -0.11643
C          C       0.35271   0.36986   0.12815  -0.11715
C          C       0.85404   0.12373   0.62880  -0.11729
C          C       0.14697   0.11575   0.87292  -0.11670
C          C       0.35207   0.62689   0.62956  -0.11645
C          C       0.64651   0.61182   0.86794  -0.11876
C          C       0.14865   0.69670   0.38987   0.04109
C          C       0.85191   0.69663   0.10947   0.04099
C          C       0.64500   0.20895   0.39157   0.04013
C          C       0.35412   0.19239   0.10682   0.04220
C          C       0.85482   0.30268   0.60875   0.04111
C          C       0.14654   0.29505   0.89312   0.04079
C          C       0.35401   0.80365   0.60810   0.03938
C          C       0.64563   0.79081   0.88826   0.04039
C          C       0.17376   0.65395   0.43774  -0.10415
C          C       0.82514   0.64950   0.06326  -0.10134
C          C       0.67231   0.16258   0.43723  -0.10222
C          C       0.32781   0.14830   0.05999  -0.10273
C          C       0.82750   0.34913   0.56308  -0.10134
C          C       0.17303   0.33944   0.93981  -0.10274
C          C       0.32782   0.84709   0.56117  -0.10121
C          C       0.67166   0.83500   0.93534  -0.10390
C          C       0.19895   0.78792   0.46436  -0.13685
C          C       0.79876   0.78067   0.03759  -0.13866
C          C       0.69827   0.29509   0.46322  -0.13848
C          C       0.30185   0.28148   0.03465  -0.13644
C          C       0.80131   0.21669   0.53745  -0.13935
C          C       0.19833   0.20561   0.96604  -0.13826
C          C       0.30173   0.71394   0.53572  -0.13557
C          C       0.69659   0.70104   0.96197  -0.13752
C          C       0.20092   0.96600   0.44350   0.09123
C          C       0.79756   0.96055   0.05751   0.08936
C          C       0.69862   0.47570   0.44399   0.09258
C          C       0.30054   0.45973   0.05575   0.08956
C          C       0.80083   0.03679   0.55715   0.09186
C          C       0.19876   0.02577   0.94589   0.09150
C          C       0.30010   0.53615   0.55682   0.09027
C          C       0.69721   0.52092   0.94207   0.09108
C          C       0.91198   0.28918   0.39491   0.07662
C          C       0.08658   0.27768   0.10277   0.07737
C          C       0.41186   0.79343   0.39845   0.07561
C          C       0.58851   0.79145   0.10622   0.07728
C          C       0.08914   0.71213   0.60394   0.07870
C          C       0.90928   0.70539   0.89310   0.07742
C          C       0.58837   0.21927   0.60504   0.07687
C          C       0.41279   0.21664   0.89480   0.07841
C          C       0.11920   0.56741   0.36174   0.08386
C          C       0.88237   0.56959   0.13641   0.08410
C          C       0.61510   0.07991   0.36429   0.08434
C          C       0.38398   0.06431   0.13407   0.08234
C          C       0.88533   0.42976   0.63560   0.08174
C          C       0.11722   0.42480   0.86542   0.08403
C          C       0.38433   0.93174   0.63494   0.08354
C          C       0.61636   0.92114   0.86069   0.08538
C          C       0.27798   0.10845   0.39905  -0.42028
C          C       0.72370   0.12142   0.10548  -0.41970
C          C       0.77357   0.62339   0.39637  -0.41924
C          C       0.22585   0.60514   0.10464  -0.42051
C          C       0.72690   0.88400   0.60587  -0.41826
C          C       0.27309   0.87811   0.89719  -0.41841
C          C       0.22405   0.39293   0.60232  -0.41737
C          C       0.76995   0.35354   0.89351  -0.42015
C          C       0.00052   0.91863   0.24841   0.01274
C          C       0.49946   0.42078   0.25186   0.01214
C          C       0.00260   0.07887   0.75035   0.01341
C          C       0.50118   0.58192   0.74961   0.01355
N          N       0.11304   0.40371   0.37848  -0.29927
N          N       0.88801   0.40476   0.11993  -0.29802
N          N       0.60887   0.91698   0.38163  -0.29873
N          N       0.39034   0.90061   0.11722  -0.29806
N          N       0.89149   0.59372   0.61904  -0.29821
N          N       0.11076   0.58785   0.88275  -0.29805
N          N       0.39072   0.09500   0.61791  -0.29767
N          N       0.61037   0.08424   0.87833  -0.29846
N          N       0.89940   0.41039   0.35955  -0.29661
N          N       0.09930   0.39603   0.13917  -0.29295
N          N       0.39920   0.90041   0.35918  -0.29438
N          N       0.60128   0.90947   0.14264  -0.29783
N          N       0.10199   0.60337   0.64268  -0.29588
N          N       0.89713   0.58275   0.85770  -0.30010
N          N       0.60107   0.10100   0.64122  -0.29743
N          N       0.40005   0.09379   0.85980  -0.29844

