data_crystal

_audit_creation_method 'AiiDA-DDEC plugin'

_cell_length_a        18.95665
_cell_length_b        18.18414
_cell_length_c         8.01264

_cell_angle_alpha     90.89358
_cell_angle_beta     60.48663
_cell_angle_gamma     118.75888

_symmetry_space_group_name_Hall 'P 1'
_symmetry_space_group_name_H-M  'P 1'

loop_
_symmetry_equiv_pos_as_xyz
 'x,y,z'

loop_
_atom_site_label
_atom_site_type_symbol
_atom_site_fract_x
_atom_site_fract_y
_atom_site_fract_z
_atom_site_charge
H          H       0.18402   0.14542   0.29998   0.10766
H          H       0.23375   0.00770   0.17298   0.10957
H          H       0.36745   0.02583   0.15352   0.11903
H          H       0.51889   0.11519   0.14592   0.11263
H          H       0.46660   0.32112   0.25326   0.11761
H          H       0.31592   0.23363   0.26268   0.11900
H          H       0.83583   0.00577   0.25077   0.12014
H          H       0.97776   0.18755   0.24547   0.10526
H          H       0.96052   0.29973   0.22249   0.11904
H          H       0.87394   0.36490   0.20587   0.11618
H          H       0.66805   0.11872   0.20826   0.11263
H          H       0.75260   0.05226   0.22726   0.11190
H          H       0.95449   0.77760   0.27714   0.11467
H          H       0.80717   0.78914   0.23590   0.10842
H          H       0.68872   0.65433   0.23047   0.11210
H          H       0.62497   0.50006   0.21545   0.11387
H          H       0.85817   0.51045   0.20468   0.11424
H          H       0.92319   0.66346   0.21770   0.11888
H          H       0.17708   0.17512   0.79120   0.11225
H          H       0.22677   0.03630   0.68053   0.10602
H          H       0.35942   0.05603   0.65285   0.11844
H          H       0.50931   0.14286   0.65161   0.11521
H          H       0.45283   0.34544   0.78252   0.11641
H          H       0.30133   0.25880   0.79400   0.11920
H          H       0.82548   0.03038   0.75491   0.11866
H          H       0.97875   0.21630   0.70568   0.10618
H          H       0.95894   0.32744   0.69709   0.12029
H          H       0.87114   0.39296   0.68888   0.11633
H          H       0.66004   0.14590   0.70526   0.11392
H          H       0.74631   0.07944   0.71430   0.11153
H          H       0.94581   0.80322   0.78868   0.11580
H          H       0.79808   0.81446   0.74829   0.11187
H          H       0.67802   0.67913   0.74951   0.11341
H          H       0.61459   0.52492   0.73205   0.11501
H          H       0.85050   0.53667   0.71101   0.11506
H          H       0.91564   0.68957   0.72420   0.11893
C          C       0.03936   0.07226   0.25575  -0.09524
C          C       0.08552   0.03146   0.26699   0.10000
C          C       0.17311   0.08434   0.26435  -0.16208
C          C       0.24202   0.06711   0.21498  -0.08615
C          C       0.38910   0.09045   0.17622  -0.12775
C          C       0.47337   0.13981   0.17194  -0.09931
C          C       0.50156   0.22326   0.20095   0.00663
C          C       0.44378   0.25626   0.23234  -0.09389
C          C       0.35929   0.20660   0.23796  -0.11852
C          C       0.32984   0.12242   0.21048   0.10635
C          C       0.58995   0.27540   0.20070   0.36787
C          C       0.95211   0.02282   0.26107   0.23145
C          C       0.89736   0.05603   0.25271  -0.18152
C          C       0.91624   0.13848   0.24286  -0.09013
C          C       0.89656   0.26015   0.21878  -0.11477
C          C       0.84861   0.29678   0.20981  -0.10309
C          C       0.76539   0.24583   0.20744   0.00834
C          C       0.73171   0.15730   0.21319  -0.10086
C          C       0.77955   0.12064   0.22338  -0.13001
C          C       0.86276   0.17130   0.22754   0.10074
C          C       0.71442   0.28549   0.20101   0.37084
C          C       0.04111   0.94112   0.28034  -0.08892
C          C       0.95696   0.89698   0.27343   0.22998
C          C       0.91794   0.80691   0.26731  -0.17400
C          C       0.84376   0.75933   0.24418  -0.08189
C          C       0.72560   0.62262   0.22634  -0.12776
C          C       0.68943   0.53628   0.21850  -0.09406
C          C       0.73680   0.49498   0.21203   0.00160
C          C       0.82160   0.54263   0.21106  -0.10008
C          C       0.85741   0.62836   0.21907  -0.11791
C          C       0.80958   0.67031   0.22933   0.10228
C          C       0.70037   0.40354   0.20503   0.37613
C          C       0.07584   0.89133   0.30613   0.24913
C          C       0.08692   0.16389   0.22885   0.24481
C          C       0.03212   0.09950   0.75000  -0.09952
C          C       0.07999   0.06004   0.75839   0.10343
C          C       0.16625   0.11345   0.75935  -0.16954
C          C       0.23381   0.09571   0.72049  -0.08142
C          C       0.37956   0.11915   0.68348  -0.12187
C          C       0.46328   0.16734   0.68158  -0.09622
C          C       0.49046   0.24971   0.71588   0.00859
C          C       0.43097   0.28175   0.75535  -0.09285
C          C       0.34641   0.23284   0.76087  -0.12026
C          C       0.31950   0.15060   0.72277   0.10306
C          C       0.58018   0.30187   0.71084   0.36742
C          C       0.94524   0.04914   0.75403   0.22771
C          C       0.89062   0.08201   0.74302  -0.17721
C          C       0.91333   0.16582   0.71797  -0.08767
C          C       0.89342   0.28776   0.69870  -0.11924
C          C       0.84492   0.32461   0.69395  -0.10087
C          C       0.75999   0.27344   0.69747   0.00655
C          C       0.72503   0.18461   0.70563  -0.09824
C          C       0.77354   0.14780   0.71121  -0.12446
C          C       0.85866   0.19854   0.70854   0.10380
C          C       0.70814   0.31295   0.69602   0.36854
C          C       0.03688   0.96970   0.76983  -0.08727
C          C       0.95001   0.92362   0.77399   0.22623
C          C       0.90910   0.83226   0.77818  -0.18343
C          C       0.83402   0.78415   0.75807  -0.08307
C          C       0.71526   0.64748   0.74308  -0.12938
C          C       0.67950   0.56151   0.73340  -0.09797
C          C       0.72793   0.52076   0.72311   0.00269
C          C       0.81327   0.56850   0.71993  -0.09800
C          C       0.84886   0.65407   0.72936  -0.11762
C          C       0.79978   0.69520   0.74393   0.09904
C          C       0.69153   0.42965   0.71389   0.37434
C          C       0.07654   0.92224   0.78094   0.24852
C          C       0.07499   0.18995   0.73721   0.24875
N          N       0.61929   0.35882   0.20552  -0.40470
N          N       0.91419   0.93738   0.26797  -0.33620
N          N       0.63472   0.23558   0.19875  -0.41153
N          N       0.75075   0.36990   0.20090  -0.40811
N          N       0.09988   0.84621   0.33075  -0.35509
N          N       0.13055   0.23990   0.20204  -0.35392
N          N       0.60817   0.38426   0.72303  -0.40669
N          N       0.90628   0.96307   0.76823  -0.33987
N          N       0.62774   0.26324   0.69613  -0.40631
N          N       0.74402   0.39692   0.69954  -0.40478
N          N       0.10630   0.88020   0.79143  -0.34910
N          N       0.11343   0.26452   0.72777  -0.35178

