data_crystal

_audit_creation_method 'AiiDA-DDEC plugin'

_cell_length_a        30.28915
_cell_length_b        21.56166
_cell_length_c         9.79808

_cell_angle_alpha     90.72616
_cell_angle_beta     89.77163
_cell_angle_gamma     89.92980

_symmetry_space_group_name_Hall 'P 1'
_symmetry_space_group_name_H-M  'P 1'

loop_
_symmetry_equiv_pos_as_xyz
 'x,y,z'

loop_
_atom_site_label
_atom_site_type_symbol
_atom_site_fract_x
_atom_site_fract_y
_atom_site_fract_z
_atom_site_charge
Zn         Zn      0.00066  -0.00137   0.00985   0.68838
Zn         Zn     -0.00087   0.00085   0.49678   0.68713
H          H       0.16854   0.05826   0.48794   0.12540
H          H       0.83011   0.94303   0.46492   0.12520
H          H       0.83227   0.06227   0.03848   0.12621
H          H       0.16855   0.93497   0.00861   0.12579
H          H       0.04347   0.76054   0.00918   0.12641
H          H       0.95694   0.23686   0.01363   0.12737
H          H       0.95272   0.76412   0.46251   0.12642
H          H       0.04567   0.23751   0.51455   0.12645
H          H       0.09725   0.78224   0.34713   0.11233
H          H       0.90706   0.22069   0.36860   0.11401
H          H       0.90304   0.77987   0.13939   0.11345
H          H       0.09710   0.21471   0.14813   0.11389
H          H       0.14335   0.88086   0.21465   0.10962
H          H       0.85913   0.12838   0.22657   0.10883
H          H       0.85453   0.87789   0.27520   0.10900
H          H       0.14225   0.11984   0.28722   0.11050
H          H       0.15784   0.70658   0.37522   0.12101
H          H       0.84578   0.29651   0.38987   0.12252
H          H       0.84191   0.70509   0.10906   0.12056
H          H       0.15731   0.29171   0.12456   0.12043
H          H       0.20536   0.80615   0.23658   0.11652
H          H       0.79802   0.20470   0.24064   0.10859
H          H       0.79395   0.80108   0.25876   0.11091
H          H       0.20385   0.19440   0.26440   0.11354
H          H       0.24307   0.72464   0.38094   0.06971
H          H       0.75606   0.27122   0.37302   0.07269
H          H       0.75713   0.72553   0.12708   0.06989
H          H       0.24131   0.28081   0.13470   0.07079
H          H       0.25807   0.60492   0.14667   0.11645
H          H       0.74332   0.39733   0.14426   0.11587
H          H       0.74429   0.60112   0.35949   0.11744
H          H       0.25633   0.39521   0.36720   0.11663
H          H       0.31635   0.69706   0.31418   0.11473
H          H       0.68046   0.29597   0.31243   0.11587
H          H       0.68310   0.69748   0.20117   0.11583
H          H       0.31633   0.30664   0.19563   0.11414
H          H       0.32165   0.53108   0.15392   0.10968
H          H       0.67866   0.46882   0.15916   0.10772
H          H       0.68147   0.52729   0.34768   0.10820
H          H       0.31849   0.47023   0.35492   0.11022
H          H       0.38119   0.62732   0.32390   0.10975
H          H       0.61633   0.36774   0.32232   0.10954
H          H       0.61907   0.62601   0.19132   0.10806
H          H       0.38122   0.37604   0.17899   0.10918
H          H       0.16938   0.05864   0.99662   0.12612
H          H       0.83172   0.93799   0.02505   0.12522
H          H       0.83164   0.06694   0.48479   0.12611
H          H       0.16691   0.93397   0.49629   0.12692
H          H       0.04024   0.76156   0.49909   0.12611
H          H       0.95787   0.23784   0.54897   0.12665
H          H       0.95596   0.76145   0.97322   0.12647
H          H       0.04477   0.23573   0.97864   0.12542
H          H       0.09836   0.78228   0.85768   0.11284
H          H       0.90200   0.20818   0.84875   0.11194
H          H       0.90023   0.79120   0.64141   0.11346
H          H       0.10178   0.21082   0.66030   0.11204
H          H       0.13887   0.87907   0.71071   0.11064
H          H       0.85295   0.11742   0.70227   0.11313
H          H       0.85444   0.88549   0.80221   0.11306
H          H       0.14630   0.11493   0.79675   0.11202
H          H       0.15914   0.70613   0.88301   0.12387
H          H       0.84180   0.28562   0.86482   0.11965
H          H       0.83990   0.71426   0.62439   0.12283
H          H       0.16279   0.28594   0.63640   0.11991
H          H       0.19945   0.80323   0.73920   0.11334
H          H       0.79088   0.19211   0.72055   0.11795
H          H       0.79328   0.81053   0.77167   0.11592
H          H       0.20713   0.19102   0.77506   0.11626
H          H       0.24340   0.72488   0.87619   0.07099
H          H       0.76057   0.27986   0.86167   0.06950
H          H       0.75577   0.72635   0.62781   0.07146
H          H       0.24752   0.26925   0.62816   0.07203
H          H       0.25664   0.60128   0.65014   0.11655
H          H       0.74421   0.40068   0.63115   0.11783
H          H       0.74030   0.60575   0.84999   0.11611
H          H       0.25576   0.39908   0.85750   0.11779
H          H       0.31920   0.69858   0.81041   0.11454
H          H       0.68556   0.30730   0.79378   0.11420
H          H       0.68041   0.69841   0.69168   0.11561
H          H       0.32321   0.29816   0.68698   0.11628
H          H       0.32070   0.52870   0.65484   0.10760
H          H       0.68070   0.47403   0.63916   0.11067
H          H       0.67800   0.53035   0.84755   0.10901
H          H       0.31991   0.47122   0.84552   0.10834
H          H       0.38377   0.62784   0.82300   0.11221
H          H       0.62026   0.37690   0.81176   0.11247
H          H       0.61629   0.62710   0.67444   0.11318
H          H       0.38588   0.37162   0.67207   0.11141
C          C       0.13981   0.02857   0.49080  -0.18507
C          C       0.85882   0.97250   0.47473  -0.18405
C          C       0.86044   0.03157   0.03078  -0.18519
C          C       0.14037   0.96575   0.00816  -0.18534
C          C       0.39411   0.46882   0.00318  -0.06352
C          C       0.60580   0.53144   0.01393  -0.06545
C          C       0.60579   0.46788   0.48587  -0.06361
C          C       0.39400   0.53155   0.49254  -0.06303
C          C       0.08157   0.11268   0.48984  -0.07130
C          C       0.91714   0.88839   0.47173  -0.06894
C          C       0.92000   0.11365   0.02639  -0.06857
C          C       0.08072   0.88425   0.02002  -0.06928
C          C       0.09452   0.04967   0.49013   0.18065
C          C       0.90403   0.95126   0.47750   0.18047
C          C       0.90601   0.05113   0.02611   0.17979
C          C       0.09475   0.94660   0.01398   0.17954
C          C       0.02213   0.80068   0.00390  -0.18463
C          C       0.97848   0.19682   0.00823  -0.18478
C          C       0.97462   0.80331   0.47600  -0.18221
C          C       0.02401   0.19772   0.51640  -0.18420
C          C       0.03639   0.86454   0.01153   0.18347
C          C       0.96432   0.13299   0.01567   0.18400
C          C       0.96122   0.86764   0.47876   0.18062
C          C       0.03756   0.13361   0.50306   0.18463
C          C       0.11606   0.83693   0.03487   0.06409
C          C       0.88490   0.16202   0.03594   0.06844
C          C       0.88162   0.84095   0.46058   0.06813
C          C       0.11737   0.15944   0.47591   0.06699
C          C       0.11910   0.78657   0.43453  -0.12087
C          C       0.88236   0.21514   0.44839  -0.12027
C          C       0.87950   0.78644   0.05732  -0.12090
C          C       0.12064   0.21009   0.06455  -0.12306
C          C       0.14706   0.84294   0.14109  -0.11983
C          C       0.85491   0.16217   0.14611  -0.12269
C          C       0.85088   0.84283   0.35332  -0.12410
C          C       0.14704   0.15571   0.36490  -0.12362
C          C       0.15354   0.74420   0.44917  -0.18391
C          C       0.84764   0.25746   0.45884  -0.18399
C          C       0.84476   0.74463   0.04172  -0.18274
C          C       0.15475   0.25306   0.05256  -0.18076
C          C       0.18168   0.80111   0.15416  -0.17893
C          C       0.82075   0.20514   0.15461  -0.17492
C          C       0.81701   0.79958   0.34328  -0.17530
C          C       0.18157   0.19768   0.35141  -0.17516
C          C       0.18669   0.75170   0.06052   0.19735
C          C       0.81493   0.24959   0.05237   0.19938
C          C       0.81213   0.75324   0.44176   0.19657
C          C       0.18809   0.24477   0.44981   0.19674
C          C       0.24561   0.69862   0.47655   0.07281
C          C       0.75275   0.29894   0.46757   0.07480
C          C       0.75213   0.70147   0.02867   0.07470
C          C       0.24569   0.30301   0.03493   0.07188
C          C       0.28226   0.65443   0.48274   0.05116
C          C       0.71639   0.34350   0.47188   0.04986
C          C       0.71567   0.65702   0.02435   0.05032
C          C       0.28199   0.34756   0.02612   0.05308
C          C       0.28545   0.60864   0.07502  -0.10939
C          C       0.71648   0.39376   0.07109  -0.10752
C          C       0.71643   0.60594   0.42917  -0.10882
C          C       0.28462   0.39091   0.43442  -0.10806
C          C       0.31769   0.66098   0.39082  -0.11737
C          C       0.68019   0.33472   0.38470  -0.11638
C          C       0.68139   0.66198   0.12124  -0.11777
C          C       0.31747   0.34195   0.11723  -0.11623
C          C       0.32082   0.56780   0.07902  -0.12377
C          C       0.68043   0.43343   0.07937  -0.12563
C          C       0.68118   0.56509   0.42204  -0.12195
C          C       0.31936   0.43265   0.42770  -0.12394
C          C       0.35410   0.62172   0.39597  -0.14047
C          C       0.64415   0.37472   0.39077  -0.13972
C          C       0.64550   0.62175   0.11612  -0.13932
C          C       0.35396   0.38079   0.10781  -0.14253
C          C       0.35548   0.57302   0.49035   0.08012
C          C       0.64399   0.42591   0.48171   0.08038
C          C       0.64391   0.57356   0.01775   0.08173
C          C       0.35526   0.42810   0.01005   0.08068
C          C       0.47780   0.49919   0.00554  -0.12223
C          C       0.52266   0.49882   0.01127  -0.12419
C          C       0.14071   0.02894   0.00084  -0.18804
C          C       0.86017   0.96824   0.02252  -0.18660
C          C       0.85961   0.03572   0.48581  -0.18832
C          C       0.13900   0.96528   0.49633  -0.18787
C          C       0.39441   0.46839   0.50224  -0.06088
C          C       0.60591   0.53110   0.49821  -0.06036
C          C       0.60615   0.46838  -0.00093  -0.05949
C          C       0.39477   0.53193   0.99384  -0.06256
C          C       0.08168   0.11187   0.98959  -0.07145
C          C       0.91895   0.88564   0.99283  -0.06959
C          C       0.91985   0.11569   0.51857  -0.06861
C          C       0.07866   0.88466   0.50868  -0.06886
C          C       0.09529   0.04936  -0.00155   0.18121
C          C       0.90555   0.94817   0.00937   0.17841
C          C       0.90532   0.05396   0.49953   0.17646
C          C       0.09319   0.94680   0.50168   0.17962
C          C       0.01936   0.80213   0.49317  -0.18330
C          C       0.97914   0.19812   0.53235  -0.18462
C          C       0.97735   0.80115   0.98712  -0.18352
C          C       0.02331   0.19621   0.99192  -0.18244
C          C       0.03416   0.86581   0.49949   0.18253
C          C       0.96441   0.13463   0.52103   0.18002
C          C       0.96328   0.86524   0.99328   0.18242
C          C       0.03737   0.13216   0.99593   0.18296
C          C       0.11349   0.83662   0.52629   0.06315
C          C       0.88473   0.16349   0.53415   0.06107
C          C       0.88331   0.83880   0.97398   0.06323
C          C       0.11707   0.15909   0.97438   0.06548
C          C       0.12093   0.78669   0.94322  -0.12344
C          C       0.87973   0.20778   0.93610  -0.12408
C          C       0.87719   0.79342   0.55676  -0.12340
C          C       0.12353   0.20759   0.57195  -0.12313
C          C       0.14317   0.84156   0.63637  -0.12147
C          C       0.85124   0.15635   0.63286  -0.11910
C          C       0.85153   0.84634   0.87064  -0.12120
C          C       0.14897   0.15312   0.86995  -0.12202
C          C       0.15552   0.74445   0.95562  -0.18562
C          C       0.84547   0.25101   0.94386  -0.18031
C          C       0.84306   0.75024   0.54811  -0.18493
C          C       0.15825   0.24957   0.55978  -0.18254
C          C       0.17724   0.79902   0.65275  -0.17687
C          C       0.81652   0.19835   0.64406  -0.18480
C          C       0.81710   0.80436   0.85313  -0.17918
C          C       0.18301   0.19588   0.85696  -0.17861
C          C       0.18349   0.75027   0.55792   0.19742
C          C       0.81394   0.24904   0.55575   0.19773
C          C       0.81251   0.75371   0.94103   0.19949
C          C       0.18672   0.24617   0.94897   0.19726
C          C       0.24773   0.70021   0.97289   0.07433
C          C       0.75546   0.30336   0.96088   0.07381
C          C       0.75227   0.70026   0.53126   0.07235
C          C       0.24987   0.29602   0.53352   0.07219
C          C       0.28449   0.65637   0.97836   0.05113
C          C       0.71863   0.34737   0.96874   0.05134
C          C       0.71635   0.65507   0.52521   0.05074
C          C       0.28562   0.34150   0.52702   0.05002
C          C       0.28382   0.60612   0.57817  -0.10881
C          C       0.71622   0.39439   0.56328  -0.10849
C          C       0.71390   0.60918   0.92531  -0.11038
C          C       0.28322   0.39478   0.92808  -0.11189
C          C       0.32008   0.66249   0.88706  -0.11705
C          C       0.68377   0.34230   0.87474  -0.11927
C          C       0.68022   0.66155   0.61474  -0.11597
C          C       0.32234   0.33548   0.61325  -0.11723
C          C       0.31962   0.56584   0.58100  -0.12409
C          C       0.68070   0.43503   0.56782  -0.12616
C          C       0.67894   0.56760   0.92324  -0.12322
C          C       0.31910   0.43474   0.92105  -0.12349
C          C       0.35620   0.62267   0.89352  -0.13991
C          C       0.64709   0.38119   0.88491  -0.13934
C          C       0.64425   0.62160   0.60520  -0.14133
C          C       0.35762   0.37662   0.60486  -0.14027
C          C       0.35672   0.57412   0.98822   0.07961
C          C       0.64503   0.42765   0.98706   0.07769
C          C       0.64432   0.57247   0.50913   0.07663
C          C       0.35654   0.42611   0.51242   0.07858
C          C       0.47760   0.50041   0.48589  -0.12262
C          C       0.52251   0.50058   0.48444  -0.12311
S          S       0.44560   0.56848   0.47764   0.08857
S          S       0.55383   0.43185   0.47111   0.08652
S          S       0.55377   0.56731   0.03065   0.08479
S          S       0.44567   0.43120   0.01131   0.08725
S          S       0.44672   0.56824  -0.00247   0.08667
S          S       0.55470   0.43051   0.00479   0.08584
S          S       0.55441   0.56886   0.49173   0.08853
S          S       0.44626   0.43167   0.49213   0.08711
N          N       0.22222   0.71050   0.07670  -0.29021
N          N       0.77954   0.29145   0.06605  -0.29337
N          N       0.77748   0.71040   0.42726  -0.28863
N          N       0.22316   0.28670   0.43282  -0.28866
N          N       0.06787   0.99831   0.00751  -0.36976
N          N       0.93298  -0.00057   0.01448  -0.37059
N          N      -0.00005   0.90309   0.00565  -0.37407
N          N       0.00079   0.09436   0.00911  -0.37602
N          N       0.21858   0.70838   0.57698  -0.28978
N          N       0.77870   0.29119   0.57010  -0.28683
N          N       0.77668   0.71288   0.92372  -0.29238
N          N       0.22141   0.28866   0.93113  -0.29026
N          N       0.06667  -0.00103   0.49632  -0.37109
N          N       0.93182   0.00181   0.49177  -0.36903
N          N       0.99810   0.90500   0.49134  -0.37364
N          N       0.00061   0.09601   0.50628  -0.37340

