data_crystal

_audit_creation_method 'AiiDA-DDEC plugin'

_cell_length_a        49.53328
_cell_length_b        49.68462
_cell_length_c         7.85380

_cell_angle_alpha     91.10457
_cell_angle_beta     114.60899
_cell_angle_gamma     119.95163

_symmetry_space_group_name_Hall 'P 1'
_symmetry_space_group_name_H-M  'P 1'

loop_
_symmetry_equiv_pos_as_xyz
 'x,y,z'

loop_
_atom_site_label
_atom_site_type_symbol
_atom_site_fract_x
_atom_site_fract_y
_atom_site_fract_z
_atom_site_charge
H          H       0.45178   0.49658   0.27667   0.10012
H          H       0.53003   0.97954   0.25351   0.10487
H          H       0.04485   0.57480   0.24890   0.10162
H          H       0.57123   0.54249   0.25749   0.10345
H          H       0.48203   0.05485   0.22853   0.10354
H          H       0.96858   0.45182   0.25125   0.10462
H          H       0.52713   0.50057   0.23764   0.09786
H          H       0.51665   0.04746   0.14099   0.10299
H          H       0.97458   0.49816   0.28800   0.10422
H          H       0.48762   0.53325   0.21946   0.09759
H          H       0.49645   0.98685   0.28563   0.09966
H          H       0.03552   0.52871   0.18896   0.10028
H          H       0.49973   0.44662   0.24084   0.10215
H          H       0.57329   0.07306   0.14930   0.10339
H          H       0.94716   0.52528   0.27347   0.10942
H          H       0.51333   0.58665   0.20482   0.10621
H          H       0.44221   0.95774   0.26434   0.10480
H          H       0.06356   0.50358   0.20236   0.10234
H          H       0.40207   0.39663   0.26712   0.09914
H          H       0.63025   0.02684   0.25937   0.10369
H          H       0.99501   0.62446   0.26623   0.10366
H          H       0.61934   0.64319   0.28105   0.10514
H          H       0.38297   0.99915   0.23782   0.09974
H          H       0.01919   0.40449   0.21252   0.09933
H          H       0.35859   0.49161   0.23426   0.11041
H          H       0.52929   0.88923   0.13250   0.11086
H          H       0.12798   0.66185   0.20739   0.11266
H          H       0.65318   0.54795   0.13733   0.10959
H          H       0.47457   0.13831   0.23723   0.11120
H          H       0.88133   0.35723   0.21569   0.10744
H          H       0.40682   0.49191   0.21851   0.10199
H          H       0.52639   0.93698   0.08968   0.10298
H          H       0.07828   0.61195   0.19442   0.10428
H          H       0.60109   0.54605   0.10745   0.10118
H          H       0.47757   0.09132   0.22255   0.10320
H          H       0.92403   0.40565   0.17033   0.10448
H          H       0.37285   0.40076   0.35536   0.10580
H          H       0.63812   0.00030   0.51084   0.10739
H          H       0.03984   0.66532   0.33630   0.10575
H          H       0.66917   0.64390   0.48210   0.10572
H          H       0.38011   0.03592   0.25198   0.10655
H          H       0.99682   0.37526   0.34865   0.09885
H          H       0.32261   0.39940   0.35644   0.12639
H          H       0.64121   0.95209   0.55517   0.12221
H          H       0.08930   0.71539   0.34107   0.12506
H          H       0.72225   0.64590   0.51439   0.12380
H          H       0.37650   0.08325   0.25798   0.12542
H          H       0.95276   0.32560   0.38304   0.11949
H          H       0.40963   0.36333   0.34049   0.10287
H          H       0.67576   0.07664   0.41688   0.10518
H          H       0.97045   0.62281   0.46584   0.10554
H          H       0.61292   0.67659   0.51181   0.10554
H          H       0.35368   0.96290   0.31323   0.10325
H          H       0.06383   0.41004   0.27010   0.10219
H          H       0.49318   0.40372   0.18600   0.10380
H          H       0.60385   0.09627   0.99116   0.10404
H          H       0.89725   0.52581   0.07586   0.11032
H          H       0.51542   0.62427   0.96057   0.10362
H          H       0.39913   0.91469   0.19991   0.10630
H          H       0.09550   0.50061   0.12688   0.10342
H          H       0.49257   0.35399   0.19000   0.11812
H          H       0.65577   0.14567   0.00247   0.12217
H          H       0.84707   0.52445   0.08406   0.12464
H          H       0.51346   0.67333   0.95811   0.12395
H          H       0.35106   0.86326   0.19420   0.12233
H          H       0.14471   0.50168   0.11158   0.12054
H          H       0.40857   0.31419   0.33951   0.10665
H          H       0.72703   0.12462   0.42043   0.11050
H          H       0.92081   0.62162   0.47394   0.11020
H          H       0.61121   0.72527   0.51050   0.10994
H          H       0.30627   0.91208   0.30713   0.10902
H          H       0.11164   0.41079   0.24893   0.11003
H          H       0.78607   0.26878   0.06980   0.13508
H          H       0.72822   0.53146   0.13806   0.13400
H          H       0.48352   0.22529   0.20163   0.13644
H          H       0.22806   0.74281   0.28328   0.13653
H          H       0.26700   0.49443   0.10699   0.13778
H          H       0.52490   0.80441   0.98545   0.13201
H          H       0.82723   0.20998   0.50153   0.13946
H          H       0.84518   0.63816   0.49950   0.13055
H          H       0.38784   0.21771   0.30707   0.13028
H          H       0.20987   0.83286   0.24295   0.13165
H          H       0.19719   0.40359   0.32342   0.13243
H          H       0.62418   0.81662   0.59597   0.13507
H          H       0.84431   0.30735   0.13686   0.07182
H          H       0.69898   0.55254   0.20292   0.07388
H          H       0.46188   0.17091   0.19471   0.07143
H          H       0.17407   0.70911   0.29461   0.07878
H          H       0.30765   0.47858   0.16587   0.07643
H          H       0.54775   0.86042   0.09066   0.07709
H          H       0.76664   0.17028   0.42706   0.07653
H          H       0.87445   0.61720   0.42877   0.07202
H          H       0.40951   0.27296   0.30805   0.07808
H          H       0.26415   0.86664   0.23892   0.07438
H          H       0.15754   0.42005   0.27248   0.07510
H          H       0.60255   0.76142   0.48839   0.07376
H          H       0.18963   0.48348   0.10270   0.29849
H          H       0.53033   0.73595   0.05089   0.30323
H          H       0.29170   0.81696   0.24614   0.30325
H          H       0.80646   0.53962   0.17432   0.30256
H          H       0.47835   0.29419   0.23062   0.29768
H          H       0.72126   0.19366   0.09005   0.29813
H          H       0.27638   0.41617   0.34503   0.30147
H          H       0.61765   0.88459   0.53759   0.30302
H          H       0.14519   0.75806   0.26773   0.30279
H          H       0.76682   0.62958   0.46522   0.30233
H          H       0.39339   0.14890   0.28113   0.30780
H          H       0.89140   0.28197   0.45157   0.30617
H          H       0.43420   0.46292   0.79241   0.10629
H          H       0.51646   0.94393   0.74036   0.10407
H          H       0.03068   0.54729   0.76567   0.10372
H          H       0.55148   0.50763   0.73442   0.10499
H          H       0.46839   0.01979   0.73282   0.10191
H          H       0.95334   0.42581   0.74719   0.10101
H          H       0.50564   0.46564   0.70723   0.09936
H          H       0.50221   0.01306   0.67483   0.10058
H          H       0.95846   0.46805   0.76375   0.10173
H          H       0.47656   0.50364   0.78625   0.10133
H          H       0.47679   0.94819   0.77304   0.09931
H          H       0.02003   0.49951   0.66932   0.10309
H          H       0.47987   0.41311   0.71457   0.10510
H          H       0.55753   0.04157   0.70250   0.10250
H          H       0.92636   0.49179   0.71285   0.10659
H          H       0.49953   0.55554   0.74226   0.10595
H          H       0.42168   0.92184   0.75857   0.10194
H          H       0.04743   0.47160   0.68957   0.10257
H          H       0.38691   0.36293   0.78564   0.10043
H          H       0.62027   0.00150   0.79101   0.10436
H          H       0.97332   0.59163   0.72105   0.09814
H          H       0.59393   0.60445   0.68329   0.10724
H          H       0.36874   0.96964   0.73757   0.09771
H          H       0.00292   0.37544   0.75794   0.09699
H          H       0.34086   0.45648   0.75258   0.11042
H          H       0.52686   0.86314   0.52528   0.10930
H          H       0.10703   0.63336   0.67767   0.10890
H          H       0.62565   0.51035   0.52846   0.10855
H          H       0.46202   0.10360   0.67734   0.11032
H          H       0.85957   0.33468   0.66770   0.11063
H          H       0.38891   0.45738   0.73292   0.10387
H          H       0.52417   0.91112   0.50987   0.10404
H          H       0.05817   0.58272   0.66795   0.10274
H          H       0.57516   0.50833   0.53042   0.10094
H          H       0.46195   0.05480   0.67425   0.10410
H          H       0.90687   0.38050   0.63121   0.10314
H          H       0.35682   0.36655   0.87254   0.10512
H          H       0.62043   0.96567   0.06583   0.10607
H          H       0.02048   0.63459   0.83493   0.10284
H          H       0.64573   0.60706   0.89454   0.11095
H          H       0.37395   0.01054   0.79320   0.10458
H          H       0.97791   0.35027   0.91806   0.10533
H          H       0.30745   0.36526   0.88582   0.12047
H          H       0.62352   0.91725   0.08178   0.12300
H          H       0.06929   0.68556   0.83855   0.12321
H          H       0.69701   0.60923   0.89493   0.12497
H          H       0.37378   0.05979   0.79253   0.12230
H          H       0.92936   0.30293   0.94370   0.12177
H          H       0.38220   0.32167   0.71049   0.10550
H          H       0.66471   0.05282   0.92549   0.10509
H          H       0.94466   0.58917   0.87671   0.10336
H          H       0.60209   0.64578   0.89753   0.10808
H          H       0.33817   0.93385   0.82098   0.10402
H          H       0.04343   0.37598   0.77186   0.10352
H          H       0.48833   0.37936   0.78253   0.10705
H          H       0.58368   0.06769   0.55192   0.10335
H          H       0.87620   0.49073   0.50928   0.10602
H          H       0.48881   0.58637   0.50019   0.10355
H          H       0.37490   0.88051   0.65837   0.10755
H          H       0.08132   0.46849   0.65052   0.10992
H          H       0.49082   0.33125   0.77921   0.12710
H          H       0.63021   0.11858   0.53700   0.11934
H          H       0.82344   0.48857   0.48526   0.12443
H          H       0.48853   0.63621   0.47510   0.12225
H          H       0.32582   0.83017   0.65588   0.12894
H          H       0.13006   0.46792   0.64388   0.12601
H          H       0.38525   0.27432   0.71232   0.11187
H          H       0.71046   0.10274   0.90870   0.10816
H          H       0.89279   0.58719   0.85235   0.11187
H          H       0.60185   0.69516   0.87281   0.11107
H          H       0.28877   0.88374   0.81006   0.11196
H          H       0.09084   0.37489   0.75569   0.11077
H          H       0.75991   0.24404   0.53635   0.13906
H          H       0.70107   0.49551   0.49925   0.13050
H          H       0.48140   0.19994   0.72352   0.13309
H          H       0.20746   0.71317   0.77005   0.13232
H          H       0.25333   0.46228   0.66578   0.13541
H          H       0.51518   0.77497   0.43471   0.13805
H          H       0.80272   0.18845   0.98975   0.13165
H          H       0.81779   0.60217   0.87399   0.13550
H          H       0.38011   0.18707   0.78876   0.13595
H          H       0.18851   0.80279   0.72590   0.13978
H          H       0.18294   0.37078   0.87588   0.13727
H          H       0.61134   0.78299   0.04408   0.13134
H          H       0.82029   0.28426   0.61102   0.07664
H          H       0.67130   0.51606   0.56552   0.07300
H          H       0.46041   0.14449   0.71495   0.07861
H          H       0.15289   0.67921   0.77631   0.07782
H          H       0.29322   0.44597   0.71715   0.07547
H          H       0.53876   0.83007   0.54509   0.07088
H          H       0.74426   0.14761   0.90784   0.07523
H          H       0.84764   0.58145   0.81091   0.07584
H          H       0.40053   0.24176   0.79663   0.07432
H          H       0.24277   0.83682   0.71931   0.07806
H          H       0.14224   0.38667   0.81912   0.07956
H          H       0.58680   0.72660   0.92986   0.07730
H          H       0.17493   0.45046   0.65034   0.30121
H          H       0.51774   0.70492   0.48527   0.30076
H          H       0.27155   0.78794   0.74116   0.30231
H          H       0.78034   0.50489   0.54179   0.30090
H          H       0.47295   0.26697   0.74375   0.30628
H          H       0.69612   0.17068   0.57827   0.30441
H          H       0.26088   0.38226   0.88540   0.29844
H          H       0.60837   0.85296   0.99341   0.30844
H          H       0.12473   0.72831   0.75857   0.29879
H          H       0.73896   0.59307   0.83305   0.30124
H          H       0.38779   0.11964   0.76051   0.29743
H          H       0.86671   0.26247   0.95623   0.30052
C          C       0.42332   0.44655   0.27437   0.07530
C          C       0.58016   0.00018   0.25928   0.07552
C          C       0.02390   0.60357   0.25615   0.07406
C          C       0.59876   0.59274   0.26935   0.07921
C          C       0.43213   0.03075   0.23505   0.06883
C          C       0.99090   0.42457   0.23629   0.07684
C          C       0.45083   0.47427   0.26660  -0.17557
C          C       0.55062   0.00011   0.23660  -0.18071
C          C       0.02297   0.57483   0.24943  -0.17465
C          C       0.56923   0.56324   0.24787  -0.17841
C          C       0.46124   0.03258   0.23294  -0.18771
C          C       0.98959   0.45219   0.23617  -0.18308
C          C       0.47805   0.47433   0.25032   0.11587
C          C       0.54761   0.02625   0.19684   0.11407
C          C       0.99539   0.54630   0.25339   0.11304
C          C       0.53826   0.56049   0.22619   0.11920
C          C       0.46466   0.00613   0.24016   0.11413
C          C       0.01563   0.48071   0.22273   0.10544
C          C       0.50634   0.50287   0.23706  -0.13136
C          C       0.51838   0.02768   0.18961  -0.13638
C          C       0.99458   0.51650   0.25577  -0.14284
C          C       0.50874   0.53105   0.22431  -0.13211
C          C       0.49440   0.00665   0.24042  -0.13026
C          C       0.01582   0.51022   0.22233  -0.13551
C          C       0.47833   0.44618   0.25161  -0.18572
C          C       0.57495   0.05239   0.17653  -0.18288
C          C       0.96797   0.54682   0.26318  -0.17810
C          C       0.53683   0.58807   0.21854  -0.19179
C          C       0.43846   0.97750   0.25185  -0.17800
C          C       0.04339   0.48126   0.21035  -0.18710
C          C       0.45141   0.41787   0.26125   0.06706
C          C       0.60561   0.05362   0.20539   0.08001
C          C       0.96752   0.57482   0.26673   0.07593
C          C       0.56597   0.61796   0.24051   0.07870
C          C       0.40848   0.97423   0.24939   0.07451
C          C       0.04572   0.45425   0.21015   0.07562
C          C       0.42404   0.41863   0.26967  -0.17052
C          C       0.60770   0.02717   0.24623  -0.18240
C          C       0.99565   0.60291   0.26445  -0.18668
C          C       0.59693   0.62014   0.26772  -0.19326
C          C       0.40592   0.00118   0.23959  -0.18922
C          C       0.01886   0.42611   0.22049  -0.17395
C          C       0.33650   0.44499   0.29355   0.20468
C          C       0.58600   0.91758   0.34210   0.20439
C          C       0.11253   0.69273   0.27595   0.20233
C          C       0.69198   0.59711   0.33241   0.20368
C          C       0.42476   0.11439   0.24613   0.19772
C          C       0.91360   0.33733   0.29830   0.20580
C          C       0.36120   0.47135   0.25861  -0.18361
C          C       0.55333   0.91349   0.21396  -0.17050
C          C       0.10915   0.66303   0.23907  -0.17139
C          C       0.65727   0.56887   0.21815  -0.16969
C          C       0.45339   0.11590   0.23822  -0.17473
C          C       0.90620   0.36059   0.23925  -0.17366
C          C       0.38896   0.47163   0.25204  -0.11990
C          C       0.55162   0.94033   0.19133  -0.11914
C          C       0.08061   0.63448   0.23161  -0.12617
C          C       0.62765   0.56770   0.20139  -0.11962
C          C       0.45523   0.08893   0.23179  -0.11660
C          C       0.93080   0.38836   0.21711  -0.11532
C          C       0.39407   0.44629   0.28474   0.06093
C          C       0.58217   0.97204   0.29354   0.06413
C          C       0.05430   0.63392   0.26311   0.05662
C          C       0.63093   0.59459   0.29351   0.05869
C          C       0.42915   0.05906   0.23548   0.05041
C          C       0.96399   0.39447   0.25282   0.06120
C          C       0.36967   0.42050   0.32443  -0.11757
C          C       0.61448   0.97594   0.42588  -0.13040
C          C       0.05848   0.66396   0.30367  -0.12266
C          C       0.66560   0.62281   0.40662  -0.13121
C          C       0.40078   0.05790   0.24448  -0.12099
C          C       0.97112   0.37113   0.31292  -0.11219
C          C       0.34155   0.41975   0.32875  -0.15235
C          C       0.61631   0.94917   0.45189  -0.15470
C          C       0.08649   0.69248   0.30798  -0.15383
C          C       0.69549   0.62404   0.42594  -0.15730
C          C       0.39850   0.08471   0.24890  -0.15469
C          C       0.94663   0.34323   0.33497  -0.15769
C          C       0.42752   0.36159   0.30221  -0.12508
C          C       0.67115   0.09126   0.32187  -0.12026
C          C       0.94333   0.60125   0.38029  -0.12808
C          C       0.59117   0.67592   0.38974  -0.12494
C          C       0.35317   0.94120   0.28215  -0.11662
C          C       0.08103   0.43025   0.23336  -0.11841
C          C       0.45124   0.38797   0.26133   0.05485
C          C       0.63578   0.08250   0.20325   0.05738
C          C       0.93777   0.57431   0.27188   0.06332
C          C       0.56421   0.64683   0.23748   0.06017
C          C       0.38034   0.94336   0.25302   0.05986
C          C       0.07531   0.45523   0.19988   0.05816
C          C       0.47477   0.38447   0.22208  -0.12699
C          C       0.63078   0.10264   0.08828  -0.12667
C          C       0.90255   0.54656   0.16635  -0.12071
C          C       0.53594   0.64615   0.08314  -0.12322
C          C       0.37907   0.91458   0.22451  -0.11714
C          C       0.09902   0.48099   0.15665  -0.12773
C          C       0.47455   0.35639   0.22356  -0.15225
C          C       0.65964   0.13016   0.09203  -0.13934
C          C       0.87430   0.54573   0.16958  -0.15159
C          C       0.53486   0.67359   0.08030  -0.15438
C          C       0.35186   0.88530   0.22006  -0.15699
C          C       0.12664   0.48168   0.14576  -0.15243
C          C       0.45048   0.33009   0.26191   0.19543
C          C       0.69484   0.13873   0.21078   0.20696
C          C       0.87988   0.57260   0.27831   0.20073
C          C       0.56173   0.70262   0.23308   0.19663
C          C       0.32433   0.88326   0.24388   0.20183
C          C       0.13211   0.45663   0.17936   0.21073
C          C       0.42694   0.33333   0.30261  -0.16656
C          C       0.70019   0.11866   0.32576  -0.17679
C          C       0.91519   0.60047   0.38560  -0.18066
C          C       0.59001   0.70332   0.38927  -0.17540
C          C       0.32590   0.91209   0.27802  -0.17670
C          C       0.10851   0.43070   0.22219  -0.16988
C          C       0.84348   0.25087   0.38884   0.27823
C          C       0.78934   0.61176   0.40874   0.28493
C          C       0.41071   0.19239   0.27460   0.27969
C          C       0.18824   0.78404   0.25883   0.27990
C          C       0.24354   0.42842   0.28829   0.26840
C          C       0.60040   0.84067   0.44021   0.27629
C          C       0.83164   0.26800   0.26775  -0.04919
C          C       0.75567   0.58116   0.30340  -0.04750
C          C       0.43841   0.19471   0.24569  -0.04650
C          C       0.19337   0.75803   0.27009  -0.04559
C          C       0.26377   0.45463   0.22728  -0.05665
C          C       0.57180   0.83711   0.26477  -0.05369
C          C       0.79499   0.25589   0.16423  -0.24786
C          C       0.75384   0.55473   0.21767  -0.23334
C          C       0.46306   0.22385   0.22865  -0.23004
C          C       0.22377   0.76229   0.27133  -0.23022
C          C       0.25211   0.47489   0.15715  -0.23479
C          C       0.54640   0.80697   0.11950  -0.24119
C          C       0.76950   0.22686   0.17242   0.26603
C          C       0.78420   0.55764   0.23147   0.27946
C          C       0.46145   0.25093   0.24085   0.27488
C          C       0.24885   0.79114   0.25795   0.27801
C          C       0.22171   0.47064   0.15168   0.27536
C          C       0.54812   0.78005   0.14334   0.28009
C          C       0.78132   0.20991   0.29641  -0.05516
C          C       0.81787   0.58836   0.33479  -0.04514
C          C       0.43370   0.24868   0.26935  -0.04870
C          C       0.24378   0.81710   0.24715  -0.04958
C          C       0.20170   0.44460   0.21421  -0.04634
C          C       0.57699   0.78375   0.31790  -0.04444
C          C       0.81816   0.22251   0.40412  -0.23961
C          C       0.81968   0.61477   0.42151  -0.24587
C          C       0.40883   0.21940   0.28483  -0.24533
C          C       0.21366   0.81305   0.24953  -0.24647
C          C       0.21274   0.42373   0.27923  -0.24723
C          C       0.60254   0.81397   0.46230  -0.23032
C          C       0.85618   0.29683   0.24037   0.08558
C          C       0.72344   0.57692   0.28328   0.09079
C          C       0.44145   0.16756   0.23078   0.09575
C          C       0.16783   0.72754   0.28095   0.08918
C          C       0.29504   0.45964   0.22832   0.08052
C          C       0.56864   0.86409   0.23414   0.08619
C          C       0.75586   0.18034   0.31462   0.08120
C          C       0.84987   0.59281   0.34894   0.08731
C          C       0.43068   0.27598   0.28027   0.08171
C          C       0.26953   0.84772   0.24010   0.08585
C          C       0.17103   0.44005   0.21893   0.09530
C          C       0.58048   0.75692   0.34781   0.08819
C          C       0.40636   0.41257   0.78565   0.07704
C          C       0.56897   0.97011   0.77041   0.07890
C          C       0.00595   0.57354   0.74601   0.07348
C          C       0.57646   0.55637   0.71357   0.07612
C          C       0.41879   0.99870   0.73811   0.06744
C          C       0.97486   0.39738   0.75389   0.07558
C          C       0.43359   0.44083   0.77872  -0.17181
C          C       0.53755   0.96685   0.74294  -0.19040
C          C       0.00702   0.54584   0.74871  -0.18611
C          C       0.54976   0.52860   0.72654  -0.18416
C          C       0.44654   0.99814   0.73426  -0.17119
C          C       0.97417   0.42501   0.73760  -0.17304
C          C       0.46033   0.44130   0.75410   0.11740
C          C       0.53335   0.99282   0.72193   0.11277
C          C       0.97822   0.51610   0.73256   0.11067
C          C       0.52169   0.52778   0.73688   0.11902
C          C       0.44766   0.97043   0.73947   0.11566
C          C       0.00039   0.45196   0.71602   0.10998
C          C       0.48847   0.46984   0.73991  -0.13566
C          C       0.50275   0.99211   0.70871  -0.12767
C          C       0.97846   0.48690   0.73387  -0.13947
C          C       0.49403   0.49957   0.75644  -0.12823
C          C       0.47667   0.96939   0.74053  -0.13153
C          C       0.00040   0.48124   0.70400  -0.14144
C          C       0.45983   0.41276   0.74079  -0.19265
C          C       0.56085   0.02159   0.71995  -0.18320
C          C       0.94823   0.51454   0.71909  -0.19083
C          C       0.52060   0.55555   0.72957  -0.19005
C          C       0.42017   0.94289   0.74962  -0.18272
C          C       0.02752   0.45065   0.70824  -0.17923
C          C       0.43405   0.38430   0.75571   0.06423
C          C       0.59249   0.02554   0.74522   0.07584
C          C       0.94634   0.54178   0.71643   0.07838
C          C       0.54665   0.58344   0.71278   0.07151
C          C       0.39120   0.94195   0.74752   0.07630
C          C       0.02956   0.42353   0.72639   0.07149
C          C       0.40738   0.38474   0.77616  -0.18680
C          C       0.59651  -0.00035   0.77558  -0.18041
C          C       0.97548   0.57099   0.73133  -0.17802
C          C       0.57449   0.58357   0.70541  -0.18019
C          C       0.39119   0.97017   0.74223  -0.17275
C          C       0.00291   0.39721   0.74977  -0.17014
C          C       0.31990   0.41032   0.81804   0.20953
C          C       0.57611   0.88696   0.80480   0.19347
C          C       0.09240   0.66351   0.76544   0.20098
C          C       0.66529   0.56025   0.71321   0.19834
C          C       0.41781   0.08556   0.73704   0.19210
C          C       0.89110   0.31517   0.80672   0.20719
C          C       0.34388   0.43649   0.77816  -0.16971
C          C       0.54771   0.88544   0.64435  -0.17184
C          C       0.08891   0.63402   0.71885  -0.17612
C          C       0.63048   0.53169   0.60973  -0.17579
C          C       0.44285   0.08358   0.70576  -0.16568
C          C       0.88524   0.33764   0.71985  -0.17263
C          C       0.37152   0.43703   0.76796  -0.11821
C          C       0.54591   0.91246   0.63602  -0.12523
C          C       0.06108   0.60524   0.71333  -0.11784
C          C       0.60191   0.53046   0.61103  -0.13229
C          C       0.44285   0.05557   0.70492  -0.12520
C          C       0.91229   0.36387   0.70260  -0.12084
C          C       0.37710   0.41192   0.79952   0.05834
C          C       0.57218   0.94201   0.78523   0.05973
C          C       0.03557   0.60438   0.75407   0.05677
C          C       0.60661   0.55761   0.71071   0.06201
C          C       0.41823   0.02825   0.73563   0.05514
C          C       0.94623   0.36909   0.77095   0.06218
C          C       0.35331   0.38618   0.84263  -0.12929
C          C       0.60040   0.94347   0.94507  -0.12390
C          C       0.03905   0.63392   0.79821  -0.11979
C          C       0.64130   0.58612   0.81145  -0.11734
C          C       0.39316   0.03051   0.76508  -0.12736
C          C       0.95179   0.34660   0.85854  -0.12917
C          C       0.32557   0.38540   0.85263  -0.15301
C          C       0.60214   0.91636   0.95552  -0.15290
C          C       0.06665   0.66282   0.80250  -0.16084
C          C       0.67007   0.58740   0.81314  -0.14947
C          C       0.39285   0.05831   0.76502  -0.15149
C          C       0.92491   0.32027   0.87616  -0.13695
C          C       0.40665   0.32453   0.73011  -0.11709
C          C       0.65669   0.06674   0.83687  -0.12166
C          C       0.91808   0.56725   0.78730  -0.11865
C          C       0.57713   0.64362   0.80495  -0.11758
C          C       0.33546   0.91127   0.77973  -0.12231
C          C       0.06209   0.39643   0.74319  -0.12009
C          C       0.43532   0.35509   0.75127   0.05559
C          C       0.62035   0.05601   0.73843   0.06513
C          C       0.91453   0.54012   0.69625   0.06146
C          C       0.54547   0.61249   0.70172   0.06493
C          C       0.36114   0.91172   0.74237   0.05371
C          C       0.05825   0.42259   0.71574   0.05936
C          C       0.46553   0.35659   0.76814  -0.11889
C          C       0.61147   0.07546   0.63200  -0.12622
C          C       0.87989   0.51176   0.58630  -0.13099
C          C       0.51347   0.61021   0.58398  -0.13524
C          C       0.35678   0.88172   0.69697  -0.12220
C          C       0.08329   0.44804   0.67750  -0.12304
C          C       0.46731   0.32955   0.76749  -0.15464
C          C       0.63737   0.10397   0.62268  -0.15058
C          C       0.85023   0.51046   0.57140  -0.15640
C          C       0.51318   0.63796   0.56868  -0.15809
C          C       0.32903   0.85315   0.69371  -0.15852
C          C       0.11073   0.44779   0.67067  -0.14933
C          C       0.43901   0.29937   0.75195   0.19907
C          C       0.67357   0.11467   0.72132   0.19765
C          C       0.85407   0.53747   0.66614   0.20341
C          C       0.54488   0.66897   0.67506   0.20455
C          C       0.30366   0.85301   0.73223   0.20223
C          C       0.11474   0.42189   0.70233   0.20220
C          C       0.40829   0.29735   0.73097  -0.17616
C          C       0.68275   0.09534   0.82898  -0.17112
C          C       0.88867   0.56603   0.77426  -0.16899
C          C       0.57697   0.67137   0.79284  -0.16734
C          C       0.30719   0.88268   0.77365  -0.17519
C          C       0.08936   0.39581   0.73518  -0.18364
C          C       0.81853   0.22952   0.87914   0.27054
C          C       0.76184   0.57556   0.77888   0.27884
C          C       0.40462   0.16328   0.76025   0.27564
C          C       0.16777   0.75444   0.75009   0.27652
C          C       0.22855   0.39492   0.83394   0.27477
C          C       0.58985   0.80888   0.89108   0.27795
C          C       0.80630   0.24568   0.75009  -0.05706
C          C       0.72824   0.54490   0.67003  -0.04516
C          C       0.43390   0.16697   0.74297  -0.04882
C          C       0.17314   0.72864   0.76202  -0.04894
C          C       0.24883   0.42114   0.77351  -0.04494
C          C       0.56192   0.80635   0.71666  -0.04252
C          C       0.76927   0.23222   0.63857  -0.23850
C          C       0.72663   0.51876   0.58193  -0.24498
C          C       0.45920   0.19708   0.73727  -0.24651
C          C       0.20344   0.73283   0.76163  -0.24750
C          C       0.23779   0.44208   0.70964  -0.24836
C          C       0.53613   0.77668   0.56800  -0.23420
C          C       0.74410   0.20353   0.65233   0.27919
C          C       0.75727   0.52202   0.59818   0.28273
C          C       0.45628   0.22350   0.74645   0.28254
C          C       0.22871   0.76185   0.75178   0.27959
C          C       0.20709   0.43750   0.70184   0.26735
C          C       0.53692   0.74926   0.58644   0.27857
C          C       0.75647   0.18734   0.78043  -0.04837
C          C       0.79082   0.55267   0.70672  -0.04262
C          C       0.42692   0.21971   0.76317  -0.04344
C          C       0.22335   0.78773   0.74040  -0.04760
C          C       0.18656   0.41107   0.76052  -0.05709
C          C       0.56463   0.75162   0.76156  -0.05299
C          C       0.79337   0.20061   0.89054  -0.24801
C          C       0.79237   0.57880   0.79382  -0.23605
C          C       0.40196   0.18977   0.77173  -0.22976
C          C       0.19291   0.78339   0.73835  -0.23346
C          C       0.19805   0.39057   0.82786  -0.23636
C          C       0.59059   0.78139   0.91016  -0.24257
C          C       0.83137   0.27467   0.72556   0.08470
C          C       0.69590   0.54030   0.64951   0.08563
C          C       0.43780   0.14022   0.73176   0.08109
C          C       0.14746   0.69816   0.77015   0.08296
C          C       0.27989   0.42601   0.77142   0.09370
C          C       0.55930   0.83367   0.68972   0.09138
C          C       0.73205   0.15768   0.80237   0.08140
C          C       0.82313   0.55725   0.72654   0.08698
C          C       0.42240   0.24608   0.77159   0.09345
C          C       0.24879   0.81827   0.73026   0.09313
C          C       0.15530   0.40610   0.76048   0.07912
C          C       0.56597   0.72367   0.78873   0.08690
N          N       0.30694   0.44165   0.29597  -0.29218
N          N       0.59010   0.89186   0.36994  -0.29514
N          N       0.13887   0.72244   0.27537  -0.28898
N          N       0.72347   0.60080   0.35637  -0.29361
N          N       0.42092   0.14042   0.25661  -0.30032
N          N       0.89037   0.30898   0.32616  -0.28756
N          N       0.55844   0.72899   0.21337  -0.29206
N          N       0.29786   0.85279   0.23668  -0.29722
N          N       0.16068   0.45957   0.16635  -0.28863
N          N       0.45229   0.30287   0.25680  -0.28790
N          N       0.72159   0.16700   0.20232  -0.28269
N          N       0.84936   0.56912   0.26915  -0.29220
N          N       0.29079   0.40695   0.82728  -0.29009
N          N       0.58003   0.86092   0.82887  -0.29644
N          N       0.11908   0.69349   0.77072  -0.29154
N          N       0.69615   0.56388   0.72803  -0.28986
N          N       0.41534   0.11238   0.74307  -0.28929
N          N       0.86579   0.28786   0.83040  -0.28341
N          N       0.54282   0.69585   0.65271  -0.29266
N          N       0.27745   0.82325   0.73259  -0.28917
N          N       0.14396   0.42467   0.69809  -0.29147
N          N       0.44344   0.27364   0.75156  -0.29892
N          N       0.69753   0.14390   0.70378  -0.28641
N          N       0.82291   0.53367   0.64782  -0.29176
O          O       0.21155   0.49074   0.08622  -0.42487
O          O       0.52273   0.75132   0.00409  -0.42291
O          O       0.27764   0.79429   0.25868  -0.42418
O          O       0.78140   0.53167   0.14873  -0.42542
O          O       0.48569   0.27844   0.22431  -0.42545
O          O       0.73452   0.21547   0.06426  -0.42504
O          O       0.25378   0.40840   0.35551  -0.41786
O          O       0.62521   0.86921   0.58298  -0.42604
O          O       0.15965   0.78104   0.25952  -0.43029
O          O       0.79211   0.63751   0.49445  -0.42805
O          O       0.38632   0.16468   0.28862  -0.42278
O          O       0.87846   0.26168   0.48847  -0.42531
O          O       0.19727   0.45792   0.63805  -0.41713
O          O       0.51167   0.72124   0.44040  -0.42405
O          O       0.25729   0.76497   0.75032  -0.42869
O          O       0.75485   0.49656   0.51214  -0.42761
O          O       0.48116   0.25193   0.74145  -0.42150
O          O       0.70885   0.19135   0.54354  -0.42218
O          O       0.23856   0.37464   0.89806  -0.42427
O          O       0.61546   0.83720   0.03436  -0.42365
O          O       0.13891   0.75123   0.74793  -0.42327
O          O       0.76440   0.60112   0.86499  -0.42525
O          O       0.37976   0.13486   0.76601  -0.42630
O          O       0.85367   0.24146   0.98905  -0.42756

