data_crystal

_audit_creation_method 'AiiDA-DDEC plugin'

_cell_length_a        25.99752
_cell_length_b        26.04453
_cell_length_c        10.36773

_cell_angle_alpha     90.43217
_cell_angle_beta     90.10294
_cell_angle_gamma     120.21824

_symmetry_space_group_name_Hall 'P 1'
_symmetry_space_group_name_H-M  'P 1'

loop_
_symmetry_equiv_pos_as_xyz
 'x,y,z'

loop_
_atom_site_label
_atom_site_type_symbol
_atom_site_fract_x
_atom_site_fract_y
_atom_site_fract_z
_atom_site_charge
H          H       0.03294   0.89409   0.14530   0.10096
H          H       0.10626   0.14400   0.15337   0.10013
H          H       0.86883   0.96986   0.15887   0.09871
H          H       0.96822   0.10319   0.15936   0.09741
H          H       0.89530   0.86425   0.14626   0.10102
H          H       0.14188   0.03815   0.15274   0.10097
H          H       0.09346   0.84455   0.14621   0.11208
H          H       0.15567   0.25425   0.15235   0.11086
H          H       0.75840   0.90775   0.17570   0.11207
H          H       0.90956   0.15480   0.17072   0.11368
H          H       0.84562   0.75378   0.14667   0.11060
H          H       0.25240   0.09843   0.15663   0.11187
H          H       0.17470   0.92893   0.30758   0.11348
H          H       0.05890   0.23962   0.30703   0.11475
H          H       0.75031   0.81179   0.31276   0.11314
H          H       0.81689   0.06350   0.31175   0.11503
H          H       0.92997   0.75302   0.29239   0.11275
H          H       0.23996   0.17888   0.30628   0.11377
H          H       0.11565   0.97939   0.30221   0.10239
H          H       0.00927   0.13003   0.30590   0.09919
H          H       0.85981   0.87277   0.30793   0.10147
H          H       0.87250   0.00955   0.31001   0.10225
H          H       0.98170   0.86285   0.29974   0.10081
H          H       0.13027   0.11804   0.30537   0.10090
H          H       0.19567   0.85673   0.39697   0.07193
H          H       0.13319   0.33543   0.39342   0.07347
H          H       0.65610   0.78896   0.40043   0.07136
H          H       0.80223   0.14224   0.39618   0.07271
H          H       0.85376   0.65709   0.37337   0.07194
H          H       0.33582   0.20206   0.39249   0.07140
H          H       0.61746   0.39191   0.06317   0.10886
H          H       0.61602   0.22661   0.09417   0.11056
H          H       0.78234   0.39220   0.10319   0.10945
H          H       0.38702   0.61240   0.09120   0.10722
H          H       0.39417   0.78116   0.08320   0.10723
H          H       0.22545   0.61880   0.05957   0.10913
H          H       0.42194   0.16424   0.23092   0.12253
H          H       0.84665   0.26237   0.25137   0.11925
H          H       0.73175   0.58615   0.19612   0.12105
H          H       0.58536   0.85305   0.22654   0.12131
H          H       0.15823   0.74224   0.21127   0.11972
H          H       0.25901   0.42161   0.22109   0.11906
H          H       0.53310   0.21736   0.23648   0.11450
H          H       0.79342   0.31952   0.25910   0.11137
H          H       0.67609   0.47553   0.20479   0.11485
H          H       0.47436   0.80053   0.22469   0.11298
H          H       0.20986   0.68338   0.21142   0.11236
H          H       0.31671   0.53245   0.22784   0.11386
H          H       0.53170   0.32369   0.43719   0.11374
H          H       0.66768   0.19710   0.44970   0.11412
H          H       0.78094   0.46093   0.40578   0.11287
H          H       0.46041   0.66543   0.44673   0.11156
H          H       0.32422   0.79196   0.45224   0.11126
H          H       0.19301   0.52744   0.45854   0.11290
H          H       0.42234   0.27310   0.43005   0.11542
H          H       0.72018   0.14035   0.45308   0.11492
H          H       0.83808   0.57048   0.39538   0.11667
H          H       0.56991   0.71668   0.44057   0.11357
H          H       0.27172   0.84859   0.44358   0.11721
H          H       0.13705   0.41791   0.45338   0.11445
H          H       0.02951   0.89349   0.65321   0.09851
H          H       0.10559   0.13611   0.64709   0.10040
H          H       0.85779   0.96548   0.65034   0.10068
H          H       0.96744   0.10410   0.65126   0.09908
H          H       0.88941   0.85583   0.64821   0.10072
H          H       0.13643   0.02869   0.64556   0.09996
H          H       0.09008   0.84400   0.66227   0.11204
H          H       0.15494   0.24635   0.65088   0.11182
H          H       0.74773   0.90234   0.65938   0.11213
H          H       0.90884   0.15550   0.65921   0.11240
H          H       0.84037   0.74577   0.64562   0.11171
H          H       0.24682   0.09122   0.65040   0.11168
H          H       0.18177   0.93827   0.80214   0.11365
H          H       0.07250   0.24548   0.78754   0.11183
H          H       0.75377   0.82596   0.81039   0.11159
H          H       0.82906   0.07677   0.80433   0.11219
H          H       0.93658   0.75895   0.79707   0.11422
H          H       0.24827   0.18037   0.80099   0.11258
H          H       0.12354   0.98948   0.80552   0.10064
H          H       0.02166   0.13542   0.79182   0.09926
H          H       0.86351   0.88579   0.79817   0.10181
H          H       0.88566   0.02376   0.79731   0.10119
H          H       0.98780   0.86891   0.80077   0.10001
H          H       0.13836   0.12149   0.79956   0.10116
H          H       0.19968   0.86115   0.88150   0.07314
H          H       0.14588   0.34109   0.87261   0.07117
H          H       0.66207   0.79997   0.91053   0.07147
H          H       0.81094   0.15091   0.89734   0.07157
H          H       0.86338   0.66377   0.88167   0.07269
H          H       0.34195   0.20046   0.88497   0.07026
H          H       0.61038   0.38559   0.58126   0.10959
H          H       0.60797   0.21918   0.58807   0.10890
H          H       0.77483   0.38404   0.57334   0.10985
H          H       0.38148   0.60662   0.58329   0.10654
H          H       0.38476   0.77332   0.59303   0.10781
H          H       0.21737   0.60909   0.59375   0.10703
H          H       0.41281   0.15156   0.72065   0.12019
H          H       0.84896   0.26746   0.72072   0.12074
H          H       0.74732   0.58114   0.73223   0.12060
H          H       0.57960   0.84467   0.71875   0.11967
H          H       0.14657   0.73191   0.72473   0.11983
H          H       0.26725   0.41485   0.70486   0.12093
H          H       0.52373   0.20280   0.72787   0.11518
H          H       0.79476   0.32355   0.72050   0.11194
H          H       0.68781   0.47029   0.73980   0.11262
H          H       0.46887   0.79347   0.72319   0.11103
H          H       0.19926   0.67420   0.73192   0.11121
H          H       0.32309   0.52553   0.71269   0.11458
H          H       0.53801   0.32109   0.91082   0.11069
H          H       0.68322   0.21526   0.94048   0.11232
H          H       0.80332   0.47118   0.94641   0.11263
H          H       0.47056   0.66857   0.96694   0.11275
H          H       0.33541   0.80375   0.93596   0.11316
H          H       0.21028   0.53630   0.91357   0.11228
H          H       0.42863   0.26949   0.90612   0.11635
H          H       0.73497   0.15790   0.93411   0.11738
H          H       0.85745   0.58083   0.93522   0.11495
H          H       0.58017   0.72006   0.96982   0.11379
H          H       0.28369   0.86189   0.93530   0.11482
H          H       0.15389   0.42667   0.90613   0.11627
C          C       0.06810   0.93976   0.47708   0.07583
C          C       0.05338   0.12507   0.47661   0.07621
C          C       0.86701   0.92372   0.47875   0.07406
C          C       0.92460   0.05334   0.47978   0.07605
C          C       0.93922   0.86746   0.47380   0.07464
C          C       0.12530   0.06884   0.47526   0.07592
C          C       0.06616   0.90440   0.07127  -0.13371
C          C       0.09845   0.16630   0.07401  -0.13336
C          C       0.84313   0.93771   0.08369  -0.13670
C          C       0.93752   0.09763   0.08221  -0.13583
C          C       0.90449   0.84110   0.07032  -0.13342
C          C       0.16528   0.06957   0.07615  -0.13450
C          C       0.09973   0.87653   0.07219  -0.10917
C          C       0.12610   0.22781   0.07393  -0.10604
C          C       0.78167   0.90337   0.09308  -0.10164
C          C       0.90498   0.12645   0.08878  -0.10542
C          C       0.87647   0.77960   0.07080  -0.10607
C          C       0.22697   0.10321   0.07898  -0.10526
C          C       0.13649   0.88293   0.48582   0.05130
C          C       0.10982   0.25056   0.48082   0.04909
C          C       0.74130   0.85246   0.48733   0.05355
C          C       0.85892   0.11314   0.48619   0.05021
C          C       0.88200   0.74186   0.46986   0.05274
C          C       0.25108   0.13943   0.47943   0.05094
C          C       0.14331   0.92149   0.38453  -0.12005
C          C       0.06876   0.21712   0.38287  -0.11815
C          C       0.77381   0.84496   0.38806  -0.12097
C          C       0.84936   0.07186   0.38749  -0.11730
C          C       0.92179   0.77553   0.37179  -0.12088
C          C       0.21747   0.14643   0.38193  -0.11953
C          C       0.10998   0.94981   0.38108  -0.13051
C          C       0.04092   0.15542   0.38180  -0.13110
C          C       0.83558   0.87967   0.38481  -0.12857
C          C       0.88108   0.04185   0.38590  -0.13021
C          C       0.95054   0.83733   0.37523  -0.13110
C          C       0.15563   0.11191   0.38082  -0.13147
C          C       0.17108   0.85281   0.48615   0.07192
C          C       0.13905   0.31527   0.48105   0.07230
C          C       0.67640   0.81645   0.48737   0.07112
C          C       0.82516   0.14409   0.48690   0.07443
C          C       0.85220   0.67703   0.46612   0.07228
C          C       0.31594   0.17526   0.47925   0.07215
C          C       0.05914   0.03163   0.47437  -0.01804
C          C       0.96096   0.02376   0.47591  -0.01940
C          C       0.96840   0.93352   0.47411  -0.01739
C          C       0.93315   0.96095   0.47560  -0.01759
C          C       0.03132   0.96885   0.47424  -0.01569
C          C       0.02392   0.05904   0.47479  -0.01811
C          C       0.41729   0.21227   0.06815   0.19541
C          C       0.79633   0.20762   0.09006   0.19572
C          C       0.79750   0.59108   0.06371   0.19440
C          C       0.59075   0.79197   0.09499   0.19647
C          C       0.21555   0.80412   0.06963   0.19801
C          C       0.20393   0.41651   0.06159   0.19705
C          C       0.44800   0.19833   0.16070  -0.15973
C          C       0.81128   0.25298   0.18258  -0.15973
C          C       0.74631   0.56029   0.14026  -0.16088
C          C       0.55956   0.81288   0.16909  -0.15971
C          C       0.19639   0.75439   0.14960  -0.16232
C          C       0.24973   0.44750   0.15289  -0.15886
C          C       0.50993   0.22772   0.16278  -0.13676
C          C       0.78159   0.28505   0.18607  -0.13290
C          C       0.71552   0.49853   0.14492  -0.13369
C          C       0.49760   0.78361   0.16683  -0.13160
C          C       0.22520   0.72161   0.14872  -0.13283
C          C       0.28181   0.50930   0.15584  -0.13740
C          C       0.54341   0.27294   0.07418   0.05643
C          C       0.73504   0.27207   0.09886   0.05674
C          C       0.73591   0.46530   0.07671   0.05588
C          C       0.46430   0.73134   0.09323   0.05476
C          C       0.27555   0.73861   0.07125   0.05554
C          C       0.26817   0.54245   0.07003   0.05672
C          C       0.50577   0.28612   0.50005  -0.12863
C          C       0.70708   0.21239   0.51016  -0.12962
C          C       0.77341   0.48720   0.47738  -0.13256
C          C       0.48648   0.70469   0.50680  -0.12755
C          C       0.28528   0.77873   0.51223  -0.12730
C          C       0.20918   0.50299   0.51375  -0.12701
C          C       0.44397   0.25708   0.49506  -0.17310
C          C       0.73738   0.18103   0.51002  -0.17531
C          C       0.80535   0.54895   0.47109  -0.17222
C          C       0.54834   0.73392   0.50280  -0.17320
C          C       0.25536   0.81041   0.50676  -0.17667
C          C       0.17809   0.44119   0.50918  -0.17577
C          C       0.60916   0.30555   0.08006   0.07963
C          C       0.70295   0.30562   0.09798   0.07941
C          C       0.70361   0.39967   0.08321   0.07516
C          C       0.39856   0.70050   0.08715   0.07798
C          C       0.30640   0.70394   0.07242   0.07763
C          C       0.30242   0.60815   0.07386   0.07989
C          C       0.64125   0.36778   0.07464  -0.19299
C          C       0.64051   0.27495   0.09152  -0.19435
C          C       0.73399   0.36804   0.09616  -0.19352
C          C       0.36470   0.63817   0.08476  -0.19379
C          C       0.36871   0.73282   0.08096  -0.19149
C          C       0.27375   0.64155   0.06749  -0.19217
C          C       0.07420   0.94590   0.97580   0.07500
C          C       0.06015   0.13193   0.97277   0.07733
C          C       0.87384   0.93180   0.97836   0.07823
C          C       0.93151   0.06035   0.97751   0.07787
C          C       0.94499   0.87442   0.97297   0.07611
C          C       0.13202   0.07529   0.97575   0.07657
C          C       0.06163   0.90131   0.57818  -0.13513
C          C       0.09505   0.15886   0.57339  -0.13298
C          C       0.83418   0.93147   0.57704  -0.13441
C          C       0.93402   0.09489   0.57777  -0.13350
C          C       0.89894   0.83346   0.57103  -0.13079
C          C       0.15927   0.06192   0.57202  -0.13360
C          C       0.09517   0.87353   0.58355  -0.10374
C          C       0.12274   0.22033   0.57597  -0.10451
C          C       0.77265   0.89644   0.58227  -0.10655
C          C       0.90163   0.12393   0.58221  -0.10607
C          C       0.87122   0.77195   0.57006  -0.10808
C          C       0.22081   0.09650   0.57493  -0.10523
C          C       0.14222   0.88854   0.97559   0.05378
C          C       0.11706   0.25731   0.97066   0.05081
C          C       0.74836   0.86199   0.99496   0.05015
C          C       0.86546   0.11960   0.98820   0.05137
C          C       0.88753   0.74896   0.97225   0.05051
C          C       0.25791   0.14366   0.97965   0.05075
C          C       0.14982   0.92920   0.87880  -0.11934
C          C       0.07905   0.22319   0.86900  -0.11831
C          C       0.77890   0.85667   0.88849  -0.11882
C          C       0.85908   0.08216   0.88335  -0.11941
C          C       0.92787   0.78197   0.87453  -0.11868
C          C       0.22495   0.14968   0.87916  -0.12000
C          C       0.11679   0.95780   0.88025  -0.13031
C          C       0.05062   0.16142   0.87118  -0.13270
C          C       0.84068   0.89060   0.88101  -0.13106
C          C       0.89107   0.05242   0.87910  -0.13050
C          C       0.95638   0.84373   0.87598  -0.13009
C          C       0.16304   0.11637   0.87815  -0.13122
C          C       0.17775   0.85942   0.97339   0.07334
C          C       0.14723   0.32209   0.96615   0.07373
C          C       0.68346   0.82595  -0.00118   0.07143
C          C       0.83218   0.15108   0.98950   0.07357
C          C       0.85767   0.68420   0.96977   0.07247
C          C       0.32280   0.17793   0.97665   0.07225
C          C       0.06580   0.03824   0.97357  -0.01768
C          C       0.96797   0.03090   0.97318  -0.01803
C          C       0.97480   0.94045   0.97334  -0.01853
C          C       0.93998   0.96825   0.97348  -0.01673
C          C       0.03776   0.97540   0.97446  -0.01802
C          C       0.03084   0.06590   0.97246  -0.01799
C          C       0.40970   0.20713   0.57292   0.19461
C          C       0.78994   0.20148   0.58351   0.19839
C          C       0.79542   0.58347   0.56226   0.19389
C          C       0.58280   0.78552   0.57831   0.19756
C          C       0.20416   0.79317   0.58206   0.19677
C          C       0.19932   0.40871   0.57663   0.19601
C          C       0.43966   0.18880   0.65767  -0.15729
C          C       0.80952   0.25279   0.66079  -0.16299
C          C       0.75323   0.55410   0.65984  -0.15820
C          C       0.55283   0.80570   0.65856  -0.15723
C          C       0.18510   0.74405   0.66419  -0.15765
C          C       0.25177   0.44016   0.65074  -0.16039
C          C       0.50156   0.21746   0.66085  -0.13445
C          C       0.77927   0.28422   0.65959  -0.13153
C          C       0.72021   0.49231   0.66367  -0.13538
C          C       0.49095   0.77703   0.66020  -0.13144
C          C       0.21460   0.71187   0.66747  -0.13174
C          C       0.28297   0.50194   0.65388  -0.13191
C          C       0.53583   0.26673   0.58185   0.05617
C          C       0.72761   0.26475   0.58398   0.05514
C          C       0.73005   0.45786   0.57286   0.05860
C          C       0.45649   0.72571   0.58466   0.05740
C          C       0.26538   0.72866   0.59163   0.05580
C          C       0.26231   0.53460   0.58558   0.05589
C          C       0.51276   0.28719   0.98214  -0.12781
C          C       0.71883   0.22539   0.00928  -0.12943
C          C       0.78763   0.49624   0.00177  -0.12824
C          C       0.49556   0.70896   0.02434  -0.12811
C          C       0.29636   0.79001   0.99591  -0.12915
C          C       0.22121   0.51139   0.98121  -0.12937
C          C       0.45086   0.25746   0.97875  -0.17419
C          C       0.74874   0.19369   0.00449  -0.17574
C          C       0.81778   0.55797   0.99430  -0.17454
C          C       0.55749   0.73848   0.02467  -0.17743
C          C       0.26692   0.82232   0.99431  -0.17450
C          C       0.18976   0.44954   0.97615  -0.17427
C          C       0.60159   0.29860   0.58409   0.07660
C          C       0.69520   0.29779   0.58336   0.07718
C          C       0.69639   0.39218   0.57824   0.08036
C          C       0.39075   0.69373   0.58832   0.07858
C          C       0.29733   0.69505   0.59338   0.07827
C          C       0.29558   0.60024   0.58904   0.07543
C          C       0.63402   0.36100   0.58164  -0.19309
C          C       0.63271   0.26753   0.58590  -0.19355
C          C       0.72647   0.36012   0.57833  -0.19272
C          C       0.35804   0.63138   0.58686  -0.19020
C          C       0.35980   0.72498   0.59232  -0.19009
C          C       0.26578   0.63265   0.59268  -0.19171
N          N       0.18159   0.83223   0.07354  -0.30046
N          N       0.17498   0.35428   0.06608  -0.30175
N          N       0.65324   0.82617   0.09773  -0.29928
N          N       0.82935   0.17834   0.09190  -0.30287
N          N       0.82547   0.65326   0.06559  -0.30140
N          N       0.35480   0.17979   0.07428  -0.30374
N          N       0.17084   0.82206   0.58396  -0.30294
N          N       0.17111   0.34654   0.57817  -0.30053
N          N       0.64530   0.81895   0.58191  -0.30183
N          N       0.82368   0.17307   0.58746  -0.30091
N          N       0.82493   0.64585   0.56616  -0.30305
N          N       0.34727   0.17360   0.57452  -0.30376

