data_crystal

_audit_creation_method 'AiiDA-DDEC plugin'

_cell_length_a        35.47314
_cell_length_b        38.88565
_cell_length_c         8.07240

_cell_angle_alpha     63.86638
_cell_angle_beta     78.86406
_cell_angle_gamma     89.67619

_symmetry_space_group_name_Hall 'P 1'
_symmetry_space_group_name_H-M  'P 1'

loop_
_symmetry_equiv_pos_as_xyz
 'x,y,z'

loop_
_atom_site_label
_atom_site_type_symbol
_atom_site_fract_x
_atom_site_fract_y
_atom_site_fract_z
_atom_site_charge
H          H       0.78813   0.70875   0.46548   0.10880
H          H       0.82560   0.76224   0.46898   0.11636
H          H       0.72085   0.79647   0.69775   0.10667
H          H       0.68352   0.74156   0.70370   0.11918
H          H       0.75881   0.85309   0.46727   0.06571
H          H       0.76988   0.92017   0.35913   0.10457
H          H       0.80632   0.97712   0.33025   0.10347
H          H       0.88569   0.90370   0.63645   0.10620
H          H       0.84978   0.84704   0.65750   0.11585
H          H       0.75313   0.65293   0.65931   0.06118
H          H       0.74742   0.58858   0.70342   0.10115
H          H       0.71424   0.53518   0.68628   0.10279
H          H       0.62612   0.60826   0.46924   0.10749
H          H       0.65813   0.66054   0.50205   0.10947
H          H       0.69819   0.50589   0.54978   0.09641
H          H       0.59211   0.55825   0.56905   0.10179
H          H       0.59558   0.45246   0.52388   0.10104
H          H       0.53552   0.55236   0.60753   0.10069
H          H       0.46860   0.55314   0.58478   0.10514
H          H       0.48163   0.46342   0.40745   0.10016
H          H       0.54795   0.46145   0.43798   0.10357
H          H       0.42036   0.56334   0.48949   0.10030
H          H       0.42503   0.45489   0.46924   0.10179
H          H       0.31827   0.50723   0.47842   0.09693
H          H       0.39163   0.61425   0.35808   0.10741
H          H       0.35534   0.66379   0.41896   0.11054
H          H       0.25546   0.58259   0.70859   0.10031
H          H       0.29121   0.53323   0.64714   0.09723
H          H       0.25151   0.64530   0.68824   0.06048
H          H       0.32312   0.74273   0.62885   0.11816
H          H       0.28865   0.79666   0.64837   0.10822
H          H       0.18692   0.75271   0.56219   0.12079
H          H       0.22201   0.69866   0.54025   0.10793
H          H       0.25110   0.83036   0.71501   0.06003
H          H       0.24942   0.89168   0.71009   0.10297
H          H       0.21754   0.95037   0.67032   0.10608
H          H       0.12247   0.90810   0.52863   0.10513
H          H       0.15434   0.84872   0.57566   0.11328
H          H       0.29729   0.47198   0.40647   0.09210
H          H       0.26512   0.41931   0.38107   0.09897
H          H       0.39694   0.40802   0.50698   0.10491
H          H       0.36398   0.35529   0.48131   0.11217
H          H       0.32746   0.25386   0.52715   0.11495
H          H       0.29204   0.19740   0.53479   0.10239
H          H       0.23912   0.32494   0.30110   0.10126
H          H       0.20370   0.26881   0.31307   0.12089
H          H       0.27042   0.17586   0.33461   0.05945
H          H       0.26532   0.11980   0.28057   0.10037
H          H       0.22809   0.06197   0.32007   0.10535
H          H       0.12656   0.09350   0.59023   0.10588
H          H       0.16346   0.15261   0.54013   0.11558
H          H       0.10003   0.06558   0.45083   0.10298
H          H       0.89443   0.10621   0.48585   0.10540
H          H       0.86103   0.16429   0.44426   0.11455
H          H       0.76599   0.11865   0.31997   0.10652
H          H       0.79914   0.06125   0.35548   0.10742
H          H       0.76190   0.17886   0.32403   0.06221
H          H       0.82905   0.25791   0.46076   0.11959
H          H       0.79679   0.31328   0.47673   0.10743
H          H       0.72744   0.21955   0.34956   0.11136
H          H       0.69457   0.27396   0.37403   0.12176
H          H       0.76145   0.34887   0.53331   0.05889
H          H       0.75877   0.40696   0.55744   0.10146
H          H       0.72369   0.45979   0.57922   0.10548
H          H       0.62547   0.41878   0.45156   0.10660
H          H       0.66092   0.36545   0.43472   0.11485
H          H       0.26166   0.35735   0.40449   0.05511
H          H       0.92364   0.95330   0.49314   0.10595
H          H       0.09175   0.94532   0.59574   0.10196
H          H       0.04038   0.05583   0.56741   0.10413
H          H       0.92588   0.06902   0.42663   0.10114
H          H       0.97278   0.05778   0.54605   0.10422
H          H       0.98058   0.96084   0.42020   0.10670
H          H       0.04814   0.95909   0.44085   0.10528
H          H       0.82031   0.01090   0.45737   0.10011
H          H       0.20027   0.00343   0.53048   0.10430
H          H       0.77487   0.68504   0.98239   0.10828
H          H       0.81152   0.73937   0.98241   0.11946
H          H       0.70583   0.77463   0.19582   0.11032
H          H       0.66890   0.72077   0.19134   0.11399
H          H       0.74411   0.83115   0.95730   0.06226
H          H       0.75471   0.89871   0.84217   0.10161
H          H       0.79034   0.95641   0.81083   0.10510
H          H       0.86509   0.88419   0.15513   0.11019
H          H       0.83137   0.82671   0.17095   0.11200
H          H       0.73756   0.63034   0.15635   0.06193
H          H       0.73233   0.56790   0.18161   0.10135
H          H       0.69837   0.51517   0.16254   0.10032
H          H       0.60861   0.58819   0.96904   0.10390
H          H       0.64261   0.64062   0.99313   0.11363
H          H       0.68015   0.48684   0.02605   0.09984
H          H       0.57383   0.53664   0.08715   0.10344
H          H       0.57653   0.43628   0.99206   0.09953
H          H       0.52528   0.54666   0.00016   0.10535
H          H       0.45821   0.55057   0.97995   0.10489
H          H       0.45199   0.43589   0.02889   0.10647
H          H       0.51935   0.43199   0.04834   0.10539
H          H       0.40124   0.54473   0.05200   0.10269
H          H       0.40359   0.44898   0.91960   0.10265
H          H       0.29814   0.50099   0.98535   0.09487
H          H       0.37662   0.60100   0.88812   0.10901
H          H       0.34369   0.65268   0.94615   0.11709
H          H       0.24139   0.57521   0.24882   0.10004
H          H       0.27390   0.52370   0.19170   0.10263
H          H       0.24036   0.63866   0.21606   0.06055
H          H       0.31394   0.73751   0.12404   0.12059
H          H       0.27974   0.79214   0.13930   0.11063
H          H       0.17678   0.74616   0.07325   0.11904
H          H       0.21109   0.69094   0.06057   0.10857
H          H       0.24078   0.82659   0.21093   0.06445
H          H       0.23533   0.88832   0.20801   0.10779
H          H       0.20038   0.94497   0.16871   0.10583
H          H       0.10945   0.89865   0.01855   0.10229
H          H       0.14460   0.84132   0.06412   0.11065
H          H       0.27555   0.47029   0.87948   0.09752
H          H       0.24034   0.41901   0.85519   0.09709
H          H       0.37060   0.40020  -0.00152   0.10961
H          H       0.33567   0.34990   0.96161   0.11622
H          H       0.30134   0.25310   0.98981   0.11652
H          H       0.26632   0.19595   0.00262   0.09782
H          H       0.21124   0.32235   0.77213   0.10186
H          H       0.17580   0.26525   0.79356   0.11672
H          H       0.24314   0.16937   0.84558   0.05502
H          H       0.24073   0.11149   0.82189   0.10242
H          H       0.20617   0.05240   0.86416   0.10600
H          H       0.10034   0.08480   0.09667   0.10567
H          H       0.13521   0.14529   0.04510   0.11341
H          H       0.07682   0.05391   0.96008   0.10508
H          H       0.87224   0.08135   0.01495   0.10467
H          H       0.84043   0.14054   0.97323   0.11324
H          H       0.75128   0.10429   0.77687   0.10107
H          H       0.78391   0.04648   0.80624   0.10528
H          H       0.74855   0.16454   0.78988   0.06059
H          H       0.81375   0.24088   0.93919   0.12076
H          H       0.78105   0.29673   0.94951   0.11005
H          H       0.70911   0.19541   0.88496   0.10993
H          H       0.67677   0.25198   0.88874   0.11988
H          H       0.74533   0.33223   0.00896   0.06078
H          H       0.73991   0.38834   0.04856   0.10262
H          H       0.70433   0.44095   0.06560   0.10315
H          H       0.60688   0.39857   0.93825   0.10545
H          H       0.64318   0.34533   0.92486   0.11070
H          H       0.23466   0.35627   0.87288   0.05595
H          H       0.90511   0.93381   0.99571   0.10698
H          H       0.07602   0.93488   0.07914   0.10209
H          H       0.01748   0.04098   0.06898   0.10431
H          H       0.90641   0.05075   0.91083   0.10239
H          H       0.94993   0.03926   0.05000   0.10317
H          H       0.96451   0.94430   0.91115   0.10393
H          H       0.03211   0.94604   0.93040   0.10366
H          H       0.80141   0.99125   0.94735   0.10164
H          H       0.17940   0.99595   0.05084   0.10336
C          C       0.36820   0.41117   0.47686  -0.12763
C          C       0.35006   0.38137   0.46277  -0.10333
C          C       0.72064   0.59276   0.65285  -0.12618
C          C       0.35000   0.44488   0.45691   0.07364
C          C       0.31252   0.38377   0.42763   0.06234
C          C       0.25067   0.29705   0.35524  -0.15376
C          C       0.28569   0.29297   0.41813   0.19859
C          C       0.78594   0.84710   0.51783   0.06313
C          C       0.79451   0.75732   0.52118  -0.15543
C          C       0.14854   0.96997   0.56312   0.07255
C          C       0.10898   0.97143   0.56216  -0.17932
C          C       0.03162   0.98030   0.46887  -0.13275
C          C       0.86091   0.90770   0.57101  -0.12758
C          C       0.84075   0.87574   0.58513  -0.10282
C          C       0.23479   0.11407   0.34793  -0.13694
C          C       0.84891   0.94497   0.48077   0.07353
C          C       0.80744   0.87974   0.50986   0.04763
C          C       0.73541   0.77755   0.64441  -0.17500
C          C       0.77581   0.78334   0.57961   0.19761
C          C       0.29185   0.35291   0.41678   0.07292
C          C       0.30048   0.25671   0.47910  -0.14024
C          C       0.64948   0.47487   0.53752   0.06485
C          C       0.61014   0.47573   0.53353  -0.18026
C          C       0.53096   0.48157   0.47297  -0.13687
C          C       0.65193   0.60312   0.52758  -0.12845
C          C       0.67000   0.63286   0.54223  -0.09784
C          C       0.29408   0.41692   0.40924  -0.13561
C          C       0.66713   0.56706   0.57861   0.06970
C          C       0.70483   0.62827   0.60537   0.05634
C          C       0.77358   0.72712   0.52253  -0.16548
C          C       0.73318   0.72097   0.58926   0.19589
C          C       0.23912   0.17352   0.38931   0.06868
C          C       0.23072   0.26588   0.36082  -0.14758
C          C       0.87046   0.04440   0.44024   0.06852
C          C       0.90992   0.04347   0.44450  -0.18268
C          C       0.98914   0.03642   0.51878  -0.12897
C          C       0.15668   0.09984   0.51702  -0.12893
C          C       0.17718   0.13268   0.49143  -0.08803
C          C       0.79524   0.91672   0.42063  -0.12852
C          C       0.17459   0.07328   0.45963   0.07408
C          C       0.21681   0.14012   0.40833   0.05150
C          C       0.28082   0.22551   0.48233  -0.18964
C          C       0.24538   0.22953   0.42411   0.20676
C          C       0.72490   0.65902   0.62022   0.06926
C          C       0.71453   0.74687   0.64905  -0.14479
C          C       0.36686   0.53880   0.48363   0.06906
C          C       0.40648   0.53942   0.48195  -0.18359
C          C       0.48585   0.53339   0.54793  -0.13383
C          C       0.65461   0.41655   0.47633  -0.13549
C          C       0.67437   0.38651   0.46484  -0.09263
C          C       0.28530   0.58955   0.63060  -0.13108
C          C       0.67137   0.44384   0.51858   0.06962
C          C       0.71228   0.38237   0.49521   0.05206
C          C       0.78124   0.29284   0.45029  -0.17586
C          C       0.74269   0.29734   0.42879   0.19559
C          C       0.22458   0.83278   0.66073   0.07375
C          C       0.21639   0.74948   0.58277  -0.14581
C          C       0.87000   0.97890   0.46883   0.07368
C          C       0.90907   0.97881   0.47798  -0.17527
C          C       0.99303   0.98148   0.45603  -0.12885
C          C       0.14984   0.90440   0.57327  -0.13542
C          C       0.16761   0.87112   0.59756  -0.09390
C          C       0.79417   0.11578   0.35710  -0.12113
C          C       0.16736   0.93417   0.59547   0.06389
C          C       0.20404   0.86615   0.64536   0.05314
C          C       0.27345   0.77493   0.62908  -0.17134
C          C       0.23451   0.77791   0.61181   0.18988
C          C       0.73369   0.35086   0.48947   0.07508
C          C       0.72415   0.27022   0.39189  -0.14490
C          C       0.36939   0.47715   0.46863   0.07727
C          C       0.40877   0.47838   0.47237  -0.18072
C          C       0.49268   0.48268   0.45526  -0.13132
C          C       0.36191   0.60704   0.43712  -0.13420
C          C       0.34182   0.63495   0.46948  -0.09709
C          C       0.72951   0.40981   0.53327  -0.13327
C          C       0.34447   0.56953   0.50250   0.07897
C          C       0.30323   0.62645   0.57034   0.05490
C          C       0.23592   0.71906   0.57315  -0.17289
C          C       0.27472   0.71613   0.59107   0.19746
C          C       0.78978   0.17849   0.36471   0.07115
C          C       0.79963   0.26202   0.44029  -0.13709
C          C       0.15229   0.03801   0.49385   0.07413
C          C       0.11301   0.03852   0.48878  -0.17520
C          C       0.02774   0.03533   0.53119  -0.13085
C          C       0.86662   0.10883   0.44577  -0.12974
C          C       0.84796   0.14153   0.42430  -0.10384
C          C       0.22151   0.89542   0.67028  -0.12656
C          C       0.84994   0.07878   0.42222   0.06656
C          C       0.81121   0.14563   0.37920   0.05602
C          C       0.74278   0.23970   0.37871  -0.16982
C          C       0.78104   0.23473   0.40498   0.19425
C          C       0.28173   0.65469   0.61210   0.07333
C          C       0.29307   0.74485   0.61756  -0.14263
C          C       0.64724   0.53517   0.56641   0.07630
C          C       0.60800   0.53503   0.55970  -0.16764
C          C       0.52427   0.53270   0.56273  -0.13105
C          C       0.09091   0.00560   0.52081   0.07312
C          C       0.04996   0.00712   0.50704   0.05927
C          C       0.58896   0.50575   0.54141   0.07498
C          C       0.54801   0.50658   0.52668   0.06091
C          C       0.42784   0.50904   0.47996   0.07278
C          C       0.46886   0.50850   0.49342   0.05557
C          C       0.34888   0.50755   0.47739  -0.17363
C          C       0.30546   0.56179   0.59609  -0.13115
C          C       0.31243   0.44670   0.42331  -0.12201
C          C       0.66745   0.50497   0.55377  -0.16769
C          C       0.70199   0.56274   0.64161  -0.14150
C          C       0.70962   0.43992   0.54414  -0.13937
C          C       0.81308   0.08314   0.37816  -0.13515
C          C       0.21401   0.08131   0.37196  -0.13736
C          C       0.20361   0.92875   0.64567  -0.13767
C          C       0.81573   0.94875   0.40518  -0.13770
C          C       0.16971   0.00370   0.52894  -0.17961
C          C       0.85105   0.01159   0.45381  -0.18143
C          C       0.97065   0.00956   0.48089   0.05634
C          C       0.92957   0.01068   0.46769   0.07565
C          C       0.34264   0.40525   0.96009  -0.12766
C          C       0.32315   0.37665   0.94224  -0.08757
C          C       0.70517   0.57229   0.13423  -0.13310
C          C       0.32661   0.44002   0.93623   0.07595
C          C       0.28597   0.38106   0.90317   0.05192
C          C       0.22323   0.29465   0.82616  -0.17482
C          C       0.25857   0.29122   0.88597   0.19868
C          C       0.77065   0.82563   0.01317   0.06994
C          C       0.78035   0.73453   0.03166  -0.14827
C          C       0.13081   0.96133   0.06168   0.07293
C          C       0.09158   0.96130   0.05356  -0.18410
C          C       0.01412   0.96614   0.96093  -0.12849
C          C       0.84177   0.88762   0.08071  -0.13074
C          C       0.82269   0.85529   0.09263  -0.10349
C          C       0.20998   0.10539   0.88424  -0.13129
C          C       0.83061   0.92482   0.97967   0.06309
C          C       0.79092   0.85878   0.00738   0.05159
C          C       0.72071   0.75552   0.14456  -0.16852
C          C       0.76121   0.76131   0.08309   0.19712
C          C       0.26471   0.35117   0.88692   0.06280
C          C       0.27400   0.25531   0.94523  -0.13746
C          C       0.63062   0.45622   0.01765   0.07206
C          C       0.59116   0.45793   0.01353  -0.18152
C          C       0.50652   0.45846   0.03142  -0.12818
C          C       0.63524   0.58316   0.02047  -0.12378
C          C       0.65423   0.61281   0.03223  -0.10146
C          C       0.26919   0.41515   0.88444  -0.13420
C          C       0.65030   0.54709   0.06738   0.07418
C          C       0.68951   0.60773   0.09193   0.05208
C          C       0.75975   0.70408   0.03323  -0.17157
C          C       0.71913   0.69889   0.08919   0.19470
C          C       0.21178   0.16752   0.89696   0.07861
C          C       0.20330   0.26291   0.83658  -0.14465
C          C       0.85136   0.02515   0.92830   0.06848
C          C       0.89068   0.02468   0.93320  -0.17811
C          C       0.96785   0.01923   0.01866  -0.13711
C          C       0.13105   0.09086   0.03399  -0.13575
C          C       0.15034   0.12453   0.00715  -0.10183
C          C       0.77897   0.89563   0.91059  -0.12888
C          C       0.15065   0.06378   0.98588   0.06928
C          C       0.19029   0.13244   0.93070   0.05707
C          C       0.25445   0.22370   0.95212  -0.16956
C          C       0.21830   0.22664   0.90123   0.20819
C          C       0.71003   0.63766   0.11095   0.06773
C          C       0.70014   0.72509   0.14561  -0.14891
C          C       0.34820   0.52768   0.00815   0.06665
C          C       0.38736   0.52512   0.01456  -0.17458
C          C       0.47107   0.52417   0.99565  -0.12795
C          C       0.63591   0.39657   0.96475  -0.13096
C          C       0.65611   0.36648   0.95606  -0.10087
C          C       0.27108   0.58079   0.16954  -0.13409
C          C       0.65232   0.42463   0.00290   0.06759
C          C       0.69412   0.36300   0.98524   0.05688
C          C       0.76516   0.27487   0.93399  -0.16981
C          C       0.72601   0.27803   0.92131   0.19276
C          C       0.21446   0.82802   0.15609   0.07068
C          C       0.20649   0.74320   0.09024  -0.14000
C          C       0.85138   0.95923   0.96435   0.08014
C          C       0.89034   0.95943   0.97599  -0.17403
C          C       0.97554   0.96522   0.94936  -0.12925
C          C       0.13672   0.89650   0.06333  -0.13138
C          C       0.15630   0.86422   0.08737  -0.10227
C          C       0.77791   0.09920   0.82879  -0.12540
C          C       0.15193   0.92690   0.08889   0.06363
C          C       0.19249   0.86079   0.13796   0.05600
C          C       0.26432   0.76988   0.12447  -0.16542
C          C       0.22514   0.77245   0.11148   0.19033
C          C       0.71670   0.33236   0.97563   0.06973
C          C       0.70681   0.24910   0.89971  -0.13820
C          C       0.34800   0.47033   0.95492   0.07318
C          C       0.38778   0.46999   0.95210  -0.16567
C          C       0.46783   0.46068   0.02008  -0.12912
C          C       0.34720   0.59516   0.97030  -0.12732
C          C       0.32902   0.62413   0.00108  -0.09353
C          C       0.71075   0.39074   0.02329  -0.11569
C          C       0.32790   0.55837   0.03803   0.08035
C          C       0.29060   0.61732   0.10285   0.05362
C          C       0.22562   0.71227   0.08522  -0.17789
C          C       0.26474   0.70980   0.09806   0.19623
C          C       0.77381   0.16032   0.85494   0.07840
C          C       0.78371   0.24374   0.92826  -0.14699
C          C       0.13005   0.02843   0.00980   0.07531
C          C       0.09131   0.02769   0.99481  -0.18277
C          C       0.00643   0.02011   0.03049  -0.12578
C          C       0.84637   0.08671   0.95704  -0.13823
C          C       0.82842   0.11965   0.93746  -0.09559
C          C       0.20779   0.89074   0.16497  -0.12462
C          C       0.83105   0.05947   0.91072   0.06456
C          C       0.79372   0.12650   0.87251   0.04803
C          C       0.72520   0.21777   0.89589  -0.17516
C          C       0.76425   0.21452   0.90944   0.19518
C          C       0.27047   0.64708   0.13701   0.06690
C          C       0.28372   0.73943   0.11552  -0.14455
C          C       0.62951   0.51559   0.05589   0.07360
C          C       0.58977   0.51517   0.05943  -0.17982
C          C       0.50967   0.52192   0.00736  -0.12477
C          C       0.07152   0.99427   0.01665   0.07310
C          C       0.03068   0.99362   0.00140   0.05499
C          C       0.57024   0.48727   0.03284   0.06634
C          C       0.52887   0.48912   0.02379   0.06275
C          C       0.40782   0.49642   0.98670   0.06639
C          C       0.44888   0.49375   0.00026   0.06455
C          C       0.32882   0.49972   0.98253  -0.16898
C          C       0.28933   0.55190   0.13704  -0.14644
C          C       0.28918   0.44405   0.89886  -0.14783
C          C       0.64926   0.48594   0.03473  -0.17611
C          C       0.68596   0.54258   0.12304  -0.12521
C          C       0.69039   0.42075   0.03213  -0.13788
C          C       0.79618   0.06635   0.84724  -0.13786
C          C       0.19056   0.07185   0.91031  -0.12942
C          C       0.18800   0.92306   0.14071  -0.13232
C          C       0.79882   0.92805   0.89467  -0.13839
C          C       0.14933   0.99521   0.04125  -0.17614
C          C       0.83218   0.99211   0.94370  -0.17949
C          C       0.95140   0.99197   0.97676   0.06007
C          C       0.91050   0.99187   0.96197   0.07618
N          N       0.30731   0.32208   0.42601  -0.29540
N          N       0.79854   0.81343   0.57251  -0.28278
N          N       0.71061   0.69134   0.59162  -0.28234
N          N       0.22303   0.19913   0.43313  -0.27923
N          N       0.72085   0.32689   0.43723  -0.29730
N          N       0.21268   0.80820   0.60967  -0.30461
N          N       0.29721   0.68858   0.56539  -0.28838
N          N       0.80264   0.20461   0.40377  -0.30386
N          N       0.27991   0.32036   0.89413  -0.29068
N          N       0.78340   0.79200   0.07362  -0.27613
N          N       0.69658   0.67033   0.08214  -0.28907
N          N       0.19556   0.19526   0.92118  -0.28428
N          N       0.70371   0.30713   0.93121  -0.30471
N          N       0.20325   0.80270   0.10794  -0.30173
N          N       0.28662   0.68127   0.07878  -0.28065
N          N       0.78518   0.18362   0.91449  -0.30104

