data_crystal

_audit_creation_method 'AiiDA-DDEC plugin'

_cell_length_a        38.56986
_cell_length_b        36.84310
_cell_length_c         8.22451

_cell_angle_alpha     123.21428
_cell_angle_beta     100.82893
_cell_angle_gamma     90.21947

_symmetry_space_group_name_Hall 'P 1'
_symmetry_space_group_name_H-M  'P 1'

loop_
_symmetry_equiv_pos_as_xyz
 'x,y,z'

loop_
_atom_site_label
_atom_site_type_symbol
_atom_site_fract_x
_atom_site_fract_y
_atom_site_fract_z
_atom_site_charge
H          H       0.58183   0.44042   0.91801   0.11111
H          H       0.58008   0.56646   0.00521   0.11126
H          H       0.61415   0.62268   0.10193   0.11328
H          H       0.65027   0.67871   0.09815   0.11308
H          H       0.72329   0.58492   0.85381   0.08943
H          H       0.73610   0.65399   0.90697   0.06174
H          H       0.77677   0.70918   0.05932   0.11175
H          H       0.81476   0.76264   0.05254   0.11450
H          H       0.72258   0.82050   0.96600   0.11083
H          H       0.68430   0.76603   0.96687   0.11568
H          H       0.76496   0.87699   0.13804   0.06980
H          H       0.77893   0.94691   0.18475   0.09440
H          H       0.84924   0.84929   0.94045   0.11937
H          H       0.88695   0.90312   0.93026   0.11057
H          H       0.61323   0.41179   0.01957   0.10830
H          H       0.65082   0.35756   0.02660   0.11211
H          H       0.73340   0.41330   0.91110   0.07674
H          H       0.74359   0.35065   0.92379   0.06182
H          H       0.78308   0.33180   0.06764   0.11183
H          H       0.69041   0.25392   0.99051   0.12201
H          H       0.82062   0.27658   0.06258   0.11968
H          H       0.72790   0.19942   0.99031   0.11282
H          H       0.77709   0.11092   0.09209   0.08437
H          H       0.86236   0.17220   0.01764   0.11454
H          H       0.89959   0.11689   0.01824   0.11039
H          H       0.92727   0.06947   0.01802   0.10961
H          H       0.08268   0.03836   0.91929   0.10889
H          H       0.11677   0.09052   0.01062   0.11314
H          H       0.22911   0.04873   0.80401   0.09085
H          H       0.15569   0.14385   0.00404   0.11802
H          H       0.24508   0.12075   0.86509   0.07212
H          H       0.28432   0.18582   0.10923   0.10970
H          H       0.32481   0.24215   0.13209   0.11712
H          H       0.23458   0.28276   0.90448   0.11112
H          H       0.19443   0.22697   0.88378   0.11620
H          H       0.27128   0.34206   0.09121   0.06818
H          H       0.36108   0.32295   0.93963   0.11369
H          H       0.28231   0.41068   0.14137   0.09144
H          H       0.39491   0.37911   0.92746   0.11338
H          H       0.42555   0.43416   0.00313   0.11268
H          H       0.42140   0.55945   0.08528   0.11059
H          H       0.48068   0.45059   0.08692   0.09799
H          H       0.52383   0.55043   0.92050   0.09810
H          H       0.46249   0.54717   0.94942   0.10309
H          H       0.54182   0.45347   0.05564   0.10338
H          H       0.38914   0.58808   0.98898   0.10853
H          H       0.35101   0.64299   0.99324   0.11188
H          H       0.27038   0.58594   0.11439   0.07871
H          H       0.21971   0.67181   0.97921   0.11144
H          H       0.18254   0.72437   0.95584   0.12009
H          H       0.25838   0.64759   0.09313   0.06244
H          H       0.31227   0.74199   0.00589   0.11976
H          H       0.27505   0.79364   0.97628   0.11538
H          H       0.23792   0.82364   0.90110   0.06168
H          H       0.22761   0.88395   0.88257   0.08249
H          H       0.14146   0.82400   0.95714   0.11428
H          H       0.10571   0.88144   0.96894   0.11056
H          H       0.92279   0.95792   0.05638   0.10943
H          H       0.08045   0.93264  -0.00120   0.10822
H          H       0.04755   0.06293   0.11470   0.10964
H          H       0.98531   0.07391   0.13257   0.10941
H          H       0.02195   0.92623   0.86962   0.10872
H          H       0.95987   0.93718   0.88852   0.10584
H          H       0.76559   0.17006   0.06848   0.06305
H          H       0.57296   0.43359   0.50469   0.10871
H          H       0.57730   0.54104   0.43632   0.11042
H          H       0.61436   0.59612   0.56633   0.11271
H          H       0.65394   0.64951   0.56192   0.11638
H          H       0.72247   0.54969   0.31528   0.09253
H          H       0.73812   0.62001   0.36535   0.07089
H          H       0.78106   0.67567   0.52036   0.11194
H          H       0.81835   0.73191   0.52634   0.11464
H          H       0.72546   0.79195   0.47238   0.11350
H          H       0.68869   0.73727   0.47649   0.11387
H          H       0.76433   0.84413   0.58588   0.06126
H          H       0.77578   0.91189   0.62790   0.08968
H          H       0.85408   0.82321   0.43608   0.11230
H          H       0.88985   0.87938   0.43221   0.11313
H          H       0.59726   0.37879   0.44899   0.11134
H          H       0.63383   0.32303   0.45099   0.11459
H          H       0.72396   0.39369   0.46076   0.08370
H          H       0.73405   0.33354   0.47687   0.06019
H          H       0.76699   0.28922   0.44443   0.11116
H          H       0.67915   0.23342   0.52739   0.11901
H          H       0.80477   0.23830   0.47620   0.11874
H          H       0.71656   0.18130   0.55098   0.11052
H          H       0.76452   0.08150   0.58333   0.07799
H          H       0.84726   0.14592   0.50818   0.11335
H          H       0.88584   0.09131   0.50190   0.10896
H          H       0.91683   0.05736   0.56424   0.10934
H          H       0.07418   0.06750   0.50439   0.10894
H          H       0.10517   0.12348   0.58919   0.11318
H          H       0.21295   0.08966   0.32625   0.09091
H          H       0.13717   0.17960   0.56946   0.11498
H          H       0.22320   0.15803   0.37679   0.06320
H          H       0.26155   0.21613   0.57337   0.11295
H          H       0.30262   0.27172   0.59734   0.11692
H          H       0.21342   0.31918   0.40377   0.11223
H          H       0.17204   0.26327   0.37912   0.11774
H          H       0.25469   0.38200   0.64476   0.07266
H          H       0.34168   0.35570   0.47816   0.11570
H          H       0.27101   0.45356   0.70401   0.09152
H          H       0.38033   0.40838   0.46569   0.11184
H          H       0.41577   0.46208   0.57909   0.10963
H          H       0.42009   0.56876   0.50610   0.10729
H          H       0.45333   0.43911   0.40923   0.10710
H          H       0.53942   0.56307   0.59962   0.10691
H          H       0.47743   0.57400   0.61848   0.10888
H          H       0.51544   0.42825   0.39159   0.10872
H          H       0.39579   0.62060   0.53963   0.11024
H          H       0.36041   0.67752   0.54260   0.11643
H          H       0.27119   0.61439   0.58078   0.08368
H          H       0.22603   0.70643   0.50000   0.11285
H          H       0.18901   0.75758   0.46543   0.11977
H          H       0.26192   0.67449   0.56136   0.06090
H          H       0.31854   0.77321   0.50624   0.11901
H          H       0.28161   0.82545   0.47878   0.11084
H          H       0.24324   0.85342   0.38508   0.06183
H          H       0.23062   0.91666   0.37466   0.07828
H          H       0.15016   0.85478   0.47484   0.11241
H          H       0.11169   0.91029   0.49078   0.10923
H          H       0.92125   0.93438   0.50579   0.10888
H          H       0.07966   0.94242   0.42261   0.11068
H          H       0.01961   0.05034   0.41891   0.10057
H          H       0.95825   0.04640   0.44374   0.10296
H          H       0.03827   0.95447   0.55977   0.10247
H          H       0.97670   0.95025   0.58334   0.09693
H          H       0.75206   0.14326   0.56985   0.05976
C          C       0.37003   0.38548   0.97673  -0.17813
C          C       0.63821   0.61499   0.04470  -0.17506
C          C       0.63971   0.41081   0.99142  -0.15818
C          C       0.36309   0.58913   0.02242  -0.16604
C          C       0.86315   0.91210   0.98897  -0.17470
C          C       0.14161   0.08189   0.96291  -0.17240
C          C       0.13279   0.88116   0.94883  -0.17401
C          C       0.87231   0.11630   0.03467  -0.17486
C          C       0.35129   0.35393   0.98158  -0.07250
C          C       0.65819   0.64639   0.04452  -0.06803
C          C       0.66046   0.38091  -0.00175  -0.05262
C          C       0.34204   0.61937   0.02163  -0.05314
C          C       0.84239   0.88200   0.99294  -0.07418
C          C       0.16298   0.11175   0.96054  -0.07941
C          C       0.15235   0.84899   0.94194  -0.07090
C          C       0.85189   0.14725   0.03440  -0.07043
C          C       0.69916   0.59444   0.91058   0.04900
C          C       0.30727   0.40260   0.09238   0.05398
C          C       0.29695   0.58734   0.08821   0.05118
C          C       0.70654   0.41214   0.93423   0.04789
C          C       0.20449   0.05921   0.85357   0.05505
C          C       0.80251   0.93591   0.12415   0.05458
C          C       0.80422   0.11274   0.07369   0.05785
C          C       0.20050   0.88268   0.90190   0.05590
C          C       0.35630   0.42518   0.03252   0.16819
C          C       0.64989   0.57375   0.97600   0.16557
C          C       0.65349   0.44044   0.95417   0.17452
C          C       0.35000   0.55905   0.05894   0.17150
C          C       0.85224   0.95350   0.05249   0.16760
C          C       0.15325   0.04152   0.91353   0.17029
C          C       0.14846   0.91368   0.93441   0.17721
C          C       0.85724   0.08389   0.05161   0.17113
C          C       0.31887   0.36224   0.04219   0.00915
C          C       0.68961   0.63630   0.97365   0.00930
C          C       0.69503   0.38087   0.96723   0.01386
C          C       0.30780   0.61911   0.05645   0.01833
C          C       0.81114   0.89380   0.06404   0.00666
C          C       0.19569   0.10079   0.90600   0.00999
C          C       0.18758   0.84946   0.91951   0.00682
C          C       0.81650   0.14572   0.05292   0.00914
C          C       0.24556   0.26219   0.95274  -0.16794
C          C       0.76464   0.73252   0.03221  -0.16153
C          C       0.77081   0.30243   0.04636  -0.17282
C          C       0.23206   0.69869   0.98135  -0.16945
C          C       0.73448   0.79637   0.98805  -0.17114
C          C       0.27363   0.20645   0.06042  -0.17036
C          C       0.26264   0.76726   0.97740  -0.17498
C          C       0.74025   0.22811   0.00627  -0.16996
C          C       0.28277   0.26642   0.02072   0.19889
C          C       0.72745   0.73308   0.00702   0.20115
C          C       0.73363   0.29575   0.02181   0.19614
C          C       0.26912   0.70389  -0.00132   0.19525
C          C       0.77165   0.79566   0.01237   0.19565
C          C       0.23657   0.20155   0.98745   0.19595
C          C       0.22564   0.76248   0.96360   0.19371
C          C       0.77736   0.23422   0.02557   0.19824
C          C       0.78815   0.86401   0.07410   0.07091
C          C       0.22004   0.13181   0.91068   0.07026
C          C       0.21126   0.81909   0.92141   0.06886
C          C       0.79224   0.17554   0.05046   0.06946
C          C       0.29703   0.33192   0.05432   0.07586
C          C       0.71202   0.66629   0.96208   0.07532
C          C       0.71847   0.35029   0.96818   0.08467
C          C       0.28398   0.64942   0.05585   0.08754
C          C       0.78608   0.76277   0.03161  -0.14027
C          C       0.22299   0.23075   0.93919  -0.14785
C          C       0.21105   0.72772   0.96656  -0.13901
C          C       0.79198   0.27194   0.04544  -0.13908
C          C       0.29625   0.23810   0.07492  -0.14811
C          C       0.71297   0.76582   0.98671  -0.14867
C          C       0.71900   0.25844   0.00577  -0.14053
C          C       0.28375   0.73847   0.99424  -0.14080
C          C       0.12908   0.94944   0.94281   0.17858
C          C       0.87715   0.04878   0.04722   0.17666
C          C       0.87419   0.98662   0.05138   0.17440
C          C       0.13150   0.00969   0.92374   0.17451
C          C       0.63160   0.47295   0.94771   0.17731
C          C       0.37231   0.52629   0.05967   0.17445
C          C       0.37545   0.46103   0.03620   0.17004
C          C       0.62967   0.53826   0.97048   0.17137
C          C       0.09395   0.95377   0.96984  -0.22053
C          C       0.91302   0.04621   0.03226  -0.22664
C          C       0.91010   0.98285   0.04433  -0.22673
C          C       0.09589   0.01440   0.93719  -0.22332
C          C       0.59508   0.46948   0.94145  -0.22463
C          C       0.40872   0.53030   0.06352  -0.22151
C          C       0.41133   0.46123   0.02355  -0.22373
C          C       0.59375   0.53891   0.98339  -0.22012
C          C       0.01431   0.95890   0.93088  -0.12471
C          C       0.99295   0.04126   0.07223  -0.12552
C          C       0.97903   0.96519   0.94144  -0.12308
C          C       0.02828   0.03501   0.06201  -0.12695
C          C       0.52454   0.47362   0.02795  -0.13082
C          C       0.47980   0.52703   0.97719  -0.12908
C          C       0.48954   0.47199   0.04623  -0.12763
C          C       0.51489   0.52882   0.95990  -0.12869
C          C       0.07676   0.98702   0.96707   0.08978
C          C       0.93006   0.01229   0.02941   0.09256
C          C       0.57561   0.50359   0.96738   0.10050
C          C       0.42881   0.49670   0.03806   0.09923
C          C       0.03977   0.99365   0.98974   0.06334
C          C       0.96742   0.00645   0.01259   0.06350
C          C       0.53818   0.50199   0.98384   0.05716
C          C       0.46621   0.49867   0.02147   0.05668
C          C       0.35617   0.41769   0.52034  -0.17363
C          C       0.63830   0.58667   0.50915  -0.17545
C          C       0.62551   0.38144   0.45241  -0.17897
C          C       0.36803   0.61985   0.54815  -0.17430
C          C       0.86460   0.88593   0.47714  -0.17882
C          C       0.12891   0.11663   0.52893  -0.17616
C          C       0.13783   0.91034   0.45982  -0.16363
C          C       0.85908   0.09039   0.52453  -0.16010
C          C       0.33493   0.38822   0.52591  -0.07529
C          C       0.66002   0.61646   0.50797  -0.07205
C          C       0.64551   0.35010   0.45220  -0.06885
C          C       0.34870   0.65179   0.55072  -0.07185
C          C       0.84484   0.85441   0.47739  -0.06681
C          C       0.14663   0.14811   0.51954  -0.07352
C          C       0.15908   0.87967   0.45397  -0.05357
C          C       0.83781   0.12061   0.52523  -0.05444
C          C       0.69892   0.56133   0.37536   0.05462
C          C       0.29487   0.44228   0.64682   0.05748
C          C       0.29888   0.61634   0.57058   0.05801
C          C       0.69578   0.38965   0.45842   0.05935
C          C       0.18908   0.09824   0.38632   0.05411
C          C       0.80105   0.90358   0.58293   0.04926
C          C       0.79165   0.08461   0.56706   0.04722
C          C       0.20403   0.91429   0.39862   0.05162
C          C       0.34516   0.45864   0.57536   0.17064
C          C       0.64834   0.54487   0.44450   0.17017
C          C       0.64207   0.41642   0.45802   0.17289
C          C       0.35134   0.58641   0.55319   0.17585
C          C       0.85138   0.92581   0.53110   0.16788
C          C       0.14232   0.07638   0.46378   0.16749
C          C       0.15070   0.94198   0.43202   0.17394
C          C       0.84560   0.05833   0.54835   0.17564
C          C       0.30309   0.40024   0.58992   0.00928
C          C       0.69130   0.60388   0.43763   0.00587
C          C       0.68200   0.35398   0.45679   0.01141
C          C       0.31272   0.65019   0.55961   0.00833
C          C       0.81201   0.86298   0.53326   0.01151
C          C       0.17762   0.13909   0.44458   0.00822
C          C       0.19339   0.88105   0.42182   0.01673
C          C       0.80283   0.11826   0.54783   0.01471
C          C       0.22379   0.29708   0.44426  -0.17290
C          C       0.76882   0.70094   0.50890  -0.17272
C          C       0.75581   0.26628   0.47093  -0.17499
C          C       0.23849   0.73212   0.49438  -0.17433
C          C       0.73802   0.76739   0.48851  -0.16075
C          C       0.25097   0.23803   0.53230  -0.17088
C          C       0.26917   0.79922   0.48089  -0.16786
C          C       0.72796   0.20495   0.52941  -0.16916
C          C       0.26093   0.30005   0.50844   0.19570
C          C       0.73184   0.70222   0.49426   0.19676
C          C       0.71995   0.26508   0.48575   0.19597
C          C       0.27547   0.73644   0.50655   0.19450
C          C       0.77506   0.76637   0.50467   0.20386
C          C       0.21373   0.23559   0.47221   0.19866
C          C       0.23219   0.79476   0.46743   0.19376
C          C       0.76383   0.20621   0.51574   0.19321
C          C       0.78944   0.83278   0.54259   0.07715
C          C       0.19857   0.16922   0.42745   0.07812
C          C       0.21744   0.85055   0.41835   0.08661
C          C       0.77854   0.14822   0.54820   0.08147
C          C       0.27885   0.36987   0.59005   0.07152
C          C       0.71504   0.63340   0.42964   0.06891
C          C       0.70610   0.32474   0.46698   0.07168
C          C       0.28917   0.67998   0.55059   0.06821
C          C       0.78980   0.73240   0.51364  -0.14582
C          C       0.20067   0.26566   0.42849  -0.14947
C          C       0.21750   0.76068   0.47510  -0.14069
C          C       0.77716   0.23765   0.48755  -0.14291
C          C       0.27403   0.26932   0.54764  -0.14567
C          C       0.71717   0.73644   0.48718  -0.13592
C          C       0.70673   0.23388   0.51531  -0.14004
C          C       0.29008   0.77035   0.49791  -0.13860
C          C       0.12807   0.97511   0.43760   0.17450
C          C       0.86807   0.02580   0.55056   0.17550
C          C       0.87114   0.96134   0.53485   0.17006
C          C       0.12407   0.04048   0.46299   0.17021
C          C       0.62249   0.45155   0.46091   0.17677
C          C       0.37040   0.55077   0.54832   0.17927
C          C       0.36718   0.49042   0.56609   0.17489
C          C       0.62579   0.51243   0.44703   0.17508
C          C       0.09197   0.97134   0.44096  -0.22184
C          C       0.90431   0.02913   0.55059  -0.22124
C          C       0.90705   0.96121   0.52249  -0.21927
C          C       0.08856   0.04036   0.48138  -0.22076
C          C       0.58690   0.45523   0.48005  -0.22684
C          C       0.40603   0.54707   0.52998  -0.22361
C          C       0.40310   0.48614   0.55977  -0.22582
C          C       0.58989   0.51670   0.45368  -0.22832
C          C       0.02081   0.97424   0.53004  -0.13034
C          C       0.97560   0.02658   0.47352  -0.12952
C          C       0.98558   0.97193   0.54435  -0.12757
C          C       0.01076   0.02882   0.45876  -0.13195
C          C       0.50749   0.46050   0.44370  -0.12498
C          C       0.48535   0.54173   0.56614  -0.12492
C          C       0.47218   0.46671   0.45384  -0.12485
C          C       0.52063   0.53548   0.55550  -0.12493
C          C       0.07161   0.00485   0.46848   0.09975
C          C       0.92448   0.99601   0.53163   0.10021
C          C       0.56994   0.48851   0.47607   0.09212
C          C       0.42298   0.51388   0.53473   0.08998
C          C       0.03431   0.00260   0.48573   0.05733
C          C       0.96200   0.99812   0.51707   0.05756
C          C       0.53265   0.49474   0.49370   0.06414
C          C       0.46021   0.50751   0.51634   0.06385
N          N       0.68041   0.56415   0.91188  -0.24475
N          N       0.32494   0.43309   0.08801  -0.24696
N          N       0.31698   0.55811   0.09002  -0.25187
N          N       0.68689   0.44123   0.92791  -0.25398
N          N       0.18451   0.03060   0.86028  -0.24877
N          N       0.82186   0.96475   0.11603  -0.24607
N          N       0.82346   0.08278   0.07303  -0.24164
N          N       0.18205   0.91381   0.90919  -0.24754
N          N       0.30700   0.29581   0.02681  -0.30103
N          N       0.70388   0.70441   0.00919  -0.29620
N          N       0.70990   0.32378   0.01568  -0.29873
N          N       0.29283   0.67659   0.01239  -0.29889
N          N       0.79519   0.82480   0.01377  -0.28923
N          N       0.21214   0.17048   0.96683  -0.27982
N          N       0.20159   0.78959   0.94993  -0.30440
N          N       0.80159   0.20637   0.02976  -0.30401
N          N       0.14744   0.97736   0.92291  -0.25984
N          N       0.85824   0.01927   0.05532  -0.26003
N          N       0.64825   0.50628   0.95658  -0.26591
N          N       0.35621   0.49258   0.05041  -0.26852
N          N       0.67869   0.53283   0.38153  -0.24716
N          N       0.31462   0.47046   0.63629  -0.24889
N          N       0.31706   0.58537   0.56687  -0.24710
N          N       0.67696   0.41983   0.45870  -0.24214
N          N       0.17244   0.06786   0.39531  -0.24548
N          N       0.81962   0.93396   0.58162  -0.24577
N          N       0.81195   0.05553   0.56833  -0.25405
N          N       0.18376   0.94391   0.40283  -0.25315
N          N       0.28572   0.33052   0.52721  -0.28208
N          N       0.70846   0.67285   0.49205  -0.28798
N          N       0.69562   0.29187   0.47129  -0.30668
N          N       0.29947   0.70980   0.52530  -0.30773
N          N       0.79848   0.79560   0.50509  -0.30145
N          N       0.18936   0.20650   0.46714  -0.29904
N          N       0.20854   0.82231   0.45566  -0.29959
N          N       0.78773   0.17824   0.52210  -0.30248
N          N       0.14355   0.00879   0.44424  -0.27104
N          N       0.85211   0.99283   0.54691  -0.26514
N          N       0.64146   0.47999   0.44661  -0.26267
N          N       0.35136   0.52243   0.56303  -0.25869

