data_crystal

_audit_creation_method 'AiiDA-DDEC plugin'

_cell_length_a        47.25980
_cell_length_b        47.05832
_cell_length_c         8.08687

_cell_angle_alpha     99.29666
_cell_angle_beta     66.73899
_cell_angle_gamma     120.06854

_symmetry_space_group_name_Hall 'P 1'
_symmetry_space_group_name_H-M  'P 1'

loop_
_symmetry_equiv_pos_as_xyz
 'x,y,z'

loop_
_atom_site_label
_atom_site_type_symbol
_atom_site_fract_x
_atom_site_fract_y
_atom_site_fract_z
_atom_site_charge
H          H       0.44732   0.42996   0.19790   0.10533
H          H       0.58445   0.01807   0.20484   0.10744
H          H       0.99274   0.56129   0.16820   0.10017
H          H       0.56675   0.58275   0.28378   0.10672
H          H       0.43215   0.98930   0.20708   0.10236
H          H       0.02223   0.43958   0.18523   0.10690
H          H       0.45328   0.38077   0.14236   0.11189
H          H       0.63500   0.07180   0.19082   0.10654
H          H       0.94010   0.55630   0.15363   0.10764
H          H       0.56422   0.63139   0.24815   0.10445
H          H       0.38610   0.93655   0.16329   0.10563
H          H       0.07573   0.44151   0.16743   0.10746
H          H       0.54519   0.42970   0.27818   0.11200
H          H       0.57000   0.11699   0.32688   0.11568
H          H       0.88438   0.45476   0.31921   0.11735
H          H       0.45745   0.57230   0.28987   0.11812
H          H       0.43090   0.88693   0.28338   0.11690
H          H       0.11427   0.54140   0.32035   0.11479
H          H       0.58159   0.47073   0.31171   0.10291
H          H       0.53012   0.11356   0.28589   0.10931
H          H       0.88801   0.41663   0.32283   0.10805
H          H       0.42011   0.53012   0.28329   0.11024
H          H       0.46381   0.88891   0.36540   0.11117
H          H       0.11330   0.58111   0.30100   0.10963
H          H       0.36398   0.42949   0.47186   0.11872
H          H       0.55922   0.94453   0.46426   0.11949
H          H       0.05298   0.62899   0.36906   0.11859
H          H       0.61478   0.56908   0.48713   0.11813
H          H       0.41809   0.05552   0.46386   0.11742
H          H       0.93623   0.37433   0.47771   0.12381
H          H       0.41858   0.43437   0.47052   0.11087
H          H       0.55851   0.99553   0.43989   0.10174
H          H       0.00239   0.57584   0.37124   0.10967
H          H       0.56161   0.56612   0.48696   0.09693
H          H       0.42285   0.00554   0.46053   0.10824
H          H       0.98707   0.42913   0.45314   0.10543
H          H       0.14184   0.62741   0.41744   0.07049
H          H       0.36845   0.52276   0.40126   0.06090
H          H       0.61432   0.47694   0.46961   0.06387
H          H       0.51417   0.14995   0.40315   0.06516
H          H       0.84222   0.37119   0.50593   0.06796
H          H       0.55598   0.66172   0.08991   0.05962
H          H       0.33965   0.89013   0.28840   0.05914
H          H       0.12019   0.44787   0.19232   0.05812
H          H       0.45945   0.34060   0.14493   0.06828
H          H       0.67393   0.12387   0.09175   0.06560
H          H       0.89504   0.53858   0.07904   0.06041
H          H       0.57747   0.71795   0.00408   0.10129
H          H       0.43875   0.28237   0.12762   0.10364
H          H       0.73400   0.16793  -0.00258   0.10676
H          H       0.85985   0.55533   0.01690   0.10257
H          H       0.28071   0.85465   0.31792   0.10020
H          H       0.16222   0.42997   0.13672   0.10224
H          H       0.57043   0.76772   0.03940   0.10710
H          H       0.44155   0.23310   0.16280   0.10797
H          H       0.77976   0.22195   0.03843   0.10635
H          H       0.80298   0.55009   0.06077   0.10082
H          H       0.23124   0.79924   0.32272   0.10543
H          H       0.21626   0.43706   0.15228   0.10470
H          H       0.46466   0.71345   0.41631   0.10621
H          H       0.30269   0.75953   0.13272   0.10449
H          H       0.23323   0.52941   0.40354   0.10214
H          H       0.53371   0.29409   0.29883   0.10250
H          H       0.70137   0.23448   0.50175   0.10410
H          H       0.75061   0.46912   0.44504   0.10652
H          H       0.47218   0.66371   0.38323   0.11315
H          H       0.35227   0.81548   0.12994   0.11252
H          H       0.18013   0.52285   0.37650   0.11392
H          H       0.53082   0.34301   0.25959   0.11175
H          H       0.65548   0.18069   0.45321   0.11358
H          H       0.80801   0.47351   0.39096   0.10794
H          H       0.33429   0.54509   0.38449   0.10428
H          H       0.45830   0.79993   0.24145   0.10729
H          H       0.20255   0.66350   0.39291   0.10369
H          H       0.64932   0.45327   0.46854   0.10519
H          H       0.53926   0.20728   0.36362   0.10588
H          H       0.78191   0.33350   0.54643   0.10402
H          H       0.28289   0.53968   0.34495   0.10700
H          H       0.46370   0.74942   0.21461   0.10848
H          H       0.25511   0.71854   0.33488   0.10829
H          H       0.70650   0.45608   0.39415   0.10665
H          H       0.53806   0.25613   0.30845   0.10770
H          H       0.73643   0.28296   0.47336   0.10895
H          H       0.75935   0.55647   0.19608   0.10681
H          H       0.43872   0.19412   0.24066   0.10347
H          H       0.81524   0.25512   0.14467   0.10471
H          H       0.24889   0.43677   0.24972   0.10361
H          H       0.56124   0.80502   0.30176   0.10905
H          H       0.20314   0.75677   0.17725   0.10714
H          H       0.70170   0.55244   0.25999   0.11485
H          H       0.44125   0.14516   0.28865   0.11472
H          H       0.86080   0.30676   0.21252   0.11506
H          H       0.30147   0.44303   0.28221   0.11352
H          H       0.55424   0.85523   0.34359   0.11429
H          H       0.15067   0.70144   0.23459   0.11039
H          H       0.48904   0.86103   0.22471   0.06961
H          H       0.44443   0.42315   0.69339   0.10311
H          H       0.58500   0.01406   0.70180   0.10831
H          H       0.99012   0.55969   0.66260   0.09828
H          H       0.56151   0.57810   0.79050   0.10636
H          H       0.43441   0.98700   0.69813   0.10252
H          H       0.02159   0.44019   0.68619   0.10649
H          H       0.45241   0.37498   0.64066   0.11264
H          H       0.63616   0.06788   0.68160   0.10728
H          H       0.93813   0.55425   0.64171   0.10504
H          H       0.55778   0.62653   0.76529   0.10377
H          H       0.38723   0.93457   0.65920   0.10823
H          H       0.07580   0.44351   0.66710   0.10780
H          H       0.54481   0.42767   0.77091   0.11235
H          H       0.57126   0.11355   0.82985   0.11689
H          H       0.88245   0.45289   0.81058   0.11686
H          H       0.45175   0.56636   0.79658   0.11631
H          H       0.42971   0.88359   0.78997   0.11568
H          H       0.11240   0.54324   0.82083   0.11480
H          H       0.58132   0.46927   0.79294   0.10226
H          H       0.53194   0.11060   0.78793   0.10978
H          H       0.88610   0.41506   0.82396   0.10848
H          H       0.41522   0.52431   0.78700   0.10895
H          H       0.46544   0.88582   0.85600   0.11200
H          H       0.10990   0.58196   0.81060   0.10863
H          H       0.36028   0.42314   0.96164   0.11799
H          H       0.55899   0.94200   0.97298   0.12008
H          H       0.04932   0.62859   0.86102   0.11741
H          H       0.61036   0.56619   0.98482   0.12010
H          H       0.41979   0.05341   0.96277   0.11809
H          H       0.93602   0.37395   0.97231   0.12488
H          H       0.41524   0.42805   0.95390   0.10803
H          H       0.55746   0.99267   0.94853   0.10351
H          H       0.99908   0.57497   0.86518   0.10397
H          H       0.55560   0.56085   0.99233   0.09580
H          H       0.42398   0.00293   0.95184   0.10729
H          H       0.98601   0.42920   0.95191   0.10521
H          H       0.13906   0.62819   0.91472   0.07104
H          H       0.36421   0.51687   0.91008   0.06094
H          H       0.61267   0.47827   0.97963   0.06614
H          H       0.51507   0.14655   0.92336   0.06555
H          H       0.84107   0.36910  -0.00013   0.06586
H          H       0.55008   0.65564   0.60365   0.06080
H          H       0.33977   0.88921   0.79250   0.06019
H          H       0.11881   0.44980   0.69963   0.05689
H          H       0.46073   0.33602   0.64088   0.06263
H          H       0.67496   0.12202   0.57152   0.06607
H          H       0.89293   0.54134   0.60513   0.05717
H          H       0.57302   0.71169   0.51458   0.10185
H          H       0.44015   0.27832   0.63782   0.10315
H          H       0.73515   0.16711   0.47777   0.10236
H          H       0.85855   0.56268   0.58562   0.10135
H          H       0.28064   0.85528   0.82127   0.10052
H          H       0.15913   0.43064   0.64544   0.10305
H          H       0.56747   0.76222   0.54212   0.10927
H          H       0.44308   0.22982   0.68112   0.10754
H          H       0.78012   0.22173   0.51994   0.10664
H          H       0.80165   0.55940   0.64739   0.10617
H          H       0.23008   0.80082   0.82266   0.10357
H          H       0.21251   0.43606   0.65811   0.10440
H          H       0.46098   0.71009   0.91377   0.10595
H          H       0.29896   0.75837   0.62692   0.10394
H          H       0.23493   0.53091   0.88674   0.10217
H          H       0.53871   0.29257   0.78451   0.10391
H          H       0.70141   0.23112   0.99454   0.10694
H          H       0.74835   0.46059   0.86995   0.10452
H          H       0.46686   0.65941   0.88871   0.11164
H          H       0.34954   0.81314   0.62849   0.11156
H          H       0.18185   0.52558   0.86638   0.11395
H          H       0.53456   0.34103   0.74585   0.11088
H          H       0.65619   0.17724   0.94336   0.11255
H          H       0.80577   0.46513   0.81677   0.11360
H          H       0.33091   0.54049   0.90318   0.10389
H          H       0.46353   0.80105   0.69904   0.10601
H          H       0.19916   0.66356   0.88567   0.10453
H          H       0.64813   0.46174   0.04675   0.10272
H          H       0.54027   0.20506   0.89238   0.10207
H          H       0.78142   0.33119   0.03907   0.10410
H          H       0.28117   0.53768   0.85946   0.10675
H          H       0.46561   0.74885   0.67800   0.10602
H          H       0.25193   0.71839   0.82799   0.10854
H          H       0.70511   0.46623   0.99518   0.09920
H          H       0.53924   0.25402   0.83550   0.10399
H          H       0.73610   0.28026   0.96660   0.10856
H          H       0.75695   0.54769   0.61484   0.10364
H          H       0.44534   0.19179   0.71589   0.10531
H          H       0.81534   0.25302   0.63906   0.10462
H          H       0.24796   0.43629   0.72222   0.10123
H          H       0.55589   0.79801   0.83196   0.10309
H          H       0.19993   0.75785   0.67997   0.10407
H          H       0.69988   0.54484   0.68171   0.11095
H          H       0.44684   0.14308   0.77490   0.11434
H          H       0.86072   0.30468   0.70900   0.11616
H          H       0.29874   0.43988   0.76225   0.11317
H          H       0.55170   0.84971   0.86979   0.11163
H          H       0.14698   0.70264   0.73816   0.11246
H          H       0.49288   0.86032   0.71082   0.06697
C          C       0.52075   0.45954   0.29662   0.03943
C          C       0.54319   0.06419   0.30367   0.03811
C          C       0.93894   0.48037   0.29649   0.03796
C          C       0.48168   0.54503   0.31308   0.03942
C          C       0.45737   0.93984   0.30619   0.04441
C          C       0.06322   0.51910   0.29479   0.03577
C          C       0.54697   0.48991   0.33990   0.04720
C          C       0.50980   0.06177   0.32999   0.04656
C          C       0.93888   0.45136   0.33628   0.04745
C          C       0.45077   0.51303   0.33356   0.04204
C          C       0.48577   0.94147   0.34360   0.05143
C          C       0.06033   0.54883   0.31082   0.04029
C          C       0.54254   0.51848   0.37195   0.02933
C          C       0.47976   0.03008   0.35487   0.03029
C          C       0.96944   0.45469   0.35046   0.02525
C          C       0.45184   0.48469   0.36284   0.02843
C          C       0.51432   0.97280   0.35169   0.02741
C          C       0.02901   0.54688   0.31230   0.02920
C          C       0.51326   0.51801   0.34897  -0.00594
C          C       0.48358   0.00068   0.32666  -0.01188
C          C       0.00131   0.48630   0.30963  -0.01289
C          C       0.48518   0.48712   0.33739  -0.01000
C          C       0.51483   0.00280   0.32253  -0.01219
C          C      -0.00004   0.51530   0.29759  -0.00589
C          C       0.49040   0.45855   0.29287   0.03267
C          C       0.54596   0.03499   0.29198   0.03291
C          C       0.96947   0.51186   0.27258   0.03162
C          C       0.51216   0.54764   0.32719   0.02821
C          C       0.45658   0.96939   0.29647   0.02740
C          C       0.03472   0.48859   0.28068   0.03096
C          C       0.46765   0.42972   0.22759  -0.11590
C          C       0.58043   0.03934   0.23890  -0.11995
C          C       0.96870   0.53820   0.21315  -0.13368
C          C       0.54175   0.57972   0.29582  -0.11098
C          C       0.43051   0.96697   0.24041  -0.12903
C          C       0.04144   0.46158   0.22455  -0.11538
C          C       0.47134   0.40187   0.19353  -0.17656
C          C       0.60937   0.06984   0.22558  -0.17658
C          C       0.93907   0.53520   0.19989  -0.18252
C          C       0.54085   0.60749   0.26908  -0.19092
C          C       0.40438   0.93715   0.21528  -0.18540
C          C       0.07193   0.46280   0.21287  -0.17486
C          C       0.49891   0.40137   0.22104   0.20740
C          C       0.60536   0.09830   0.26607   0.21041
C          C       0.90751   0.50484   0.24589   0.20727
C          C       0.50958   0.60500   0.27269   0.20842
C          C       0.40356   0.90757   0.23956   0.20494
C          C       0.09781   0.49160   0.25907   0.20514
C          C       0.52384   0.43072   0.26344  -0.19409
C          C       0.57242   0.09480   0.30011  -0.19424
C          C       0.90862   0.47802   0.28895  -0.18859
C          C       0.48092   0.57366   0.29182  -0.19901
C          C       0.43092   0.90978   0.27700  -0.19145
C          C       0.09328   0.51936   0.29281  -0.18519
C          C       0.57729   0.49189   0.34579  -0.22602
C          C       0.50655   0.08983   0.32748  -0.21767
C          C       0.90977   0.41980   0.35372  -0.22508
C          C       0.41975   0.50928   0.32706  -0.22062
C          C       0.48601   0.91264   0.36652  -0.20878
C          C       0.08883   0.57975   0.31485  -0.22051
C          C       0.60299   0.52058   0.38750   0.21234
C          C       0.47408   0.08793   0.36595   0.21523
C          C       0.90929   0.39162   0.39178   0.20674
C          C       0.38872   0.47918   0.36840   0.20833
C          C       0.51392   0.91344   0.39158   0.20989
C          C       0.08743   0.60897   0.32668   0.21001
C          C       0.38866   0.45227   0.42541  -0.15221
C          C       0.53979   0.94408   0.42229  -0.16353
C          C       0.05519   0.60665   0.34817  -0.16213
C          C       0.59649   0.54752   0.43955  -0.15814
C          C       0.44365   0.05686   0.42022  -0.15708
C          C       0.93777   0.39559   0.43010  -0.16636
C          C       0.41937   0.45512   0.42272  -0.12415
C          C       0.53958   0.97270   0.40468  -0.12998
C          C       0.02709   0.57663   0.34416  -0.12345
C          C       0.56698   0.54600   0.43419  -0.13225
C          C       0.44661   0.02899   0.41548  -0.12386
C          C       0.96644   0.42636   0.41348  -0.12001
C          C       0.14191   0.64632   0.35283   0.07555
C          C       0.35162   0.49807   0.36557   0.07448
C          C       0.63776   0.50044   0.40834   0.07304
C          C       0.49236   0.14426   0.36188   0.07180
C          C       0.85105   0.35367   0.42936   0.06886
C          C       0.67168   0.50291   0.37108   0.05135
C          C       0.49051   0.17262   0.32771   0.04549
C          C       0.82450   0.32334   0.38686   0.05086
C          C       0.32139   0.49430   0.33716   0.05334
C          C       0.50589   0.83089   0.29563   0.05356
C          C       0.17285   0.67878   0.31866   0.04930
C          C       0.52993   0.65880   0.17825   0.06762
C          C       0.34730   0.87077   0.24402   0.06769
C          C       0.13606   0.47190   0.23784   0.06425
C          C       0.48150   0.34510   0.18046   0.06146
C          C       0.66456   0.13886   0.19381   0.06248
C          C       0.87205   0.51872   0.17520   0.07466
C          C       0.52517   0.68754   0.19216   0.05367
C          C       0.31965   0.83854   0.22742   0.05976
C          C       0.16740   0.47604   0.25528   0.05258
C          C       0.48444   0.31627   0.19331   0.05029
C          C       0.69149   0.17058   0.22301   0.05067
C          C       0.83794   0.51482   0.20170   0.05404
C          C       0.55281   0.71706   0.09537  -0.12816
C          C       0.28547   0.83375   0.27627  -0.13021
C          C       0.17785   0.45175   0.19594  -0.13238
C          C       0.45940   0.28479   0.16682  -0.12788
C          C       0.72696   0.18250   0.10891  -0.13228
C          C       0.83585   0.53649   0.11166  -0.12616
C          C       0.54892   0.74502   0.11545  -0.13878
C          C       0.25772   0.80264   0.27829  -0.13742
C          C       0.20835   0.45575   0.20598  -0.13580
C          C       0.46101   0.25690   0.18747  -0.13387
C          C       0.75281   0.21309   0.13279  -0.13632
C          C       0.80363   0.53372   0.13832  -0.13469
C          C       0.48923   0.71428   0.32464  -0.13716
C          C       0.29781   0.78033   0.17538  -0.13429
C          C       0.21853   0.50793   0.33982  -0.12941
C          C       0.51298   0.29093   0.25840  -0.13004
C          C       0.70869   0.22059   0.38725  -0.13188
C          C       0.77435   0.48760   0.34761  -0.13758
C          C       0.49324   0.68658   0.30744  -0.09719
C          C       0.32557   0.81139   0.17218  -0.09680
C          C       0.18848   0.50432   0.32742  -0.10575
C          C       0.51161   0.31877   0.23719  -0.11057
C          C       0.68282   0.19027   0.36276  -0.10762
C          C       0.80642   0.49007   0.31979  -0.09857
C          C       0.31559   0.52136   0.35354  -0.13134
C          C       0.48043   0.80085   0.25887  -0.12314
C          C       0.20288   0.68387   0.34325  -0.12183
C          C       0.51749   0.20442   0.33339  -0.12570
C          C       0.78914   0.31624   0.45796  -0.12500
C          C       0.28629   0.51815   0.33287  -0.13985
C          C       0.48346   0.77251   0.24378  -0.13794
C          C       0.23258   0.71479   0.30919  -0.14123
C          C       0.70591   0.47762   0.36708  -0.13465
C          C       0.51656   0.23212   0.30300  -0.13672
C          C       0.76342   0.28746   0.41824  -0.13953
C          C       0.73544   0.53355   0.25330  -0.12895
C          C       0.46112   0.19741   0.26582  -0.12840
C          C       0.80760   0.27215   0.23266  -0.13241
C          C       0.26757   0.46076   0.27763  -0.12959
C          C       0.53869   0.80401   0.28902  -0.13742
C          C       0.20291   0.73651   0.22720  -0.13620
C          C       0.70330   0.53176   0.29106  -0.09324
C          C       0.46222   0.16967   0.29315  -0.10880
C          C       0.83334   0.30091   0.27089  -0.10209
C          C       0.29688   0.46391   0.29664  -0.10011
C          C       0.53488   0.83199   0.31296  -0.10245
C          C       0.17357   0.70566   0.25804  -0.09704
C          C       0.51299   0.77377   0.25488   0.06316
C          C       0.23301   0.74187   0.25312   0.06409
C          C       0.26123   0.48770   0.29569   0.07398
C          C       0.48840   0.22953   0.26813   0.06522
C          C       0.77184   0.26438   0.30651   0.07195
C          C       0.73774   0.50663   0.29083   0.06599
C          C       0.51709   0.74413   0.23077   0.06995
C          C       0.26313   0.77511   0.23247   0.07074
C          C       0.22949   0.48384   0.27918   0.06683
C          C       0.48751   0.25903   0.23658   0.05886
C          C       0.74441   0.23290   0.27295   0.06417
C          C       0.77199   0.50929   0.25807   0.05941
C          C       0.67356   0.47588   0.40813  -0.12601
C          C       0.50284   0.86055   0.30546   0.06883
C          C       0.51873   0.45570   0.78716   0.03698
C          C       0.54431   0.06086   0.80303   0.04141
C          C       0.93655   0.47905   0.79578   0.03933
C          C       0.47678   0.53947   0.81399   0.03912
C          C       0.45762   0.93667   0.80582   0.04298
C          C       0.06105   0.51973   0.79831   0.03713
C          C       0.54463   0.48646   0.82895   0.04876
C          C       0.51105   0.05869   0.82930   0.04448
C          C       0.93687   0.45035   0.83669   0.04707
C          C       0.44639   0.50722   0.83120   0.03876
C          C       0.48614   0.93826   0.84230   0.04776
C          C       0.05753   0.54911   0.81373   0.04056
C          C       0.53888   0.51421   0.86584   0.02632
C          C       0.48087   0.02720   0.85149   0.02853
C          C       0.96769   0.45420   0.85054   0.02354
C          C       0.44806   0.47889   0.85502   0.03091
C          C       0.51446   0.96958   0.85265   0.02642
C          C       0.02619   0.54660   0.81175   0.03224
C          C       0.50918   0.51286   0.84357  -0.00541
C          C       0.48446   0.99772   0.82369  -0.01136
C          C       0.99928   0.48603   0.81083  -0.00619
C          C       0.48165   0.48171   0.82911  -0.01524
C          C       0.51546  -0.00037   0.82132  -0.00970
C          C       0.99746   0.51470   0.79786  -0.00782
C          C       0.48774   0.45359   0.78481   0.03168
C          C       0.54690   0.03155   0.79001   0.02944
C          C       0.96687   0.51066   0.77171   0.03193
C          C       0.50743   0.54232   0.82629   0.02743
C          C       0.45737   0.96645   0.79411   0.02760
C          C       0.03293   0.48895   0.78328   0.03016
C          C       0.46537   0.42399   0.72227  -0.11660
C          C       0.58130   0.03556   0.73522  -0.12140
C          C       0.96609   0.53664   0.70869  -0.12797
C          C       0.53646   0.57466   0.80112  -0.10926
C          C       0.43176   0.96445   0.73588  -0.12586
C          C       0.04042   0.46241   0.72645  -0.11593
C          C       0.47019   0.39673   0.68964  -0.17780
C          C       0.61046   0.06604   0.72007  -0.17972
C          C       0.93664   0.53331   0.69230  -0.18422
C          C       0.53492   0.60237   0.78073  -0.18540
C          C       0.40516   0.93482   0.71276  -0.18526
C          C       0.07129   0.46438   0.71436  -0.17390
C          C       0.49852   0.39748   0.71561   0.20228
C          C       0.60660   0.09460   0.76294   0.21039
C          C       0.90519   0.50284   0.73705   0.20571
C          C       0.50357   0.59950   0.78308   0.20884
C          C       0.40337   0.90496   0.74152   0.20387
C          C       0.09690   0.49343   0.76076   0.21018
C          C       0.52288   0.42747   0.75595  -0.19293
C          C       0.57363   0.09132   0.80018  -0.19708
C          C       0.90641   0.47633   0.78345  -0.18653
C          C       0.47537   0.56800   0.79797  -0.20207
C          C       0.43053   0.90672   0.77969  -0.18751
C          C       0.09157   0.52075   0.79521  -0.18790
C          C       0.57572   0.48963   0.83113  -0.22798
C          C       0.50817   0.08700   0.82857  -0.21811
C          C       0.90811   0.41857   0.85354  -0.22518
C          C       0.41521   0.50339   0.82710  -0.21449
C          C       0.48698   0.90967   0.86271  -0.21059
C          C       0.08552   0.58022   0.82008  -0.21968
C          C       0.60083   0.51872   0.87338   0.21755
C          C       0.47587   0.08547   0.86775   0.21856
C          C       0.90831   0.39062   0.88902   0.20668
C          C       0.38438   0.47323   0.86607   0.21073
C          C       0.51473   0.91078   0.89156   0.21210
C          C       0.08386   0.60922   0.82840   0.21383
C          C       0.38475   0.44615   0.91757  -0.15891
C          C       0.53988   0.94135   0.92757  -0.16315
C          C       0.05170   0.60640   0.84438  -0.16689
C          C       0.59286   0.54468   0.93292  -0.16401
C          C       0.44523   0.05449   0.91872  -0.15779
C          C       0.93701   0.39507   0.92696  -0.16547
C          C       0.41575   0.44906   0.91114  -0.12481
C          C       0.53929   0.96973   0.90999  -0.13158
C          C       0.02390   0.57614   0.84008  -0.11738
C          C       0.56243   0.54183   0.93237  -0.12757
C          C       0.44786   0.02638   0.91062  -0.12463
C          C       0.96526   0.42609   0.91214  -0.11846
C          C       0.13847   0.64694   0.85243   0.06993
C          C       0.34759   0.49273   0.86846   0.07381
C          C       0.63620   0.50056   0.90419   0.07615
C          C       0.49450   0.14181   0.87425   0.07111
C          C       0.85042   0.35193   0.92311   0.07294
C          C       0.67012   0.50312   0.86834   0.05241
C          C       0.49353   0.17054   0.83792   0.05171
C          C       0.82420   0.32132   0.88033   0.05070
C          C       0.31818   0.49023   0.83730   0.05645
C          C       0.50729   0.82869   0.78757   0.05029
C          C       0.16934   0.67944   0.81697   0.05138
C          C       0.52415   0.65318   0.69023   0.06979
C          C       0.34669   0.86937   0.74750   0.06696
C          C       0.13524   0.47405   0.74080   0.06739
C          C       0.48306   0.34151   0.67688   0.06428
C          C       0.66574   0.13617   0.68100   0.06344
C          C       0.87001   0.51838   0.67668   0.07282
C          C       0.52018   0.68226   0.70083   0.05194
C          C       0.31841   0.83771   0.72898   0.05905
C          C       0.16657   0.47774   0.75584   0.05443
C          C       0.48686   0.31328   0.69229   0.05064
C          C       0.69248   0.16820   0.70920   0.04794
C          C       0.83607   0.51424   0.69909   0.05874
C          C       0.54853   0.71141   0.60309  -0.12780
C          C       0.28463   0.83399   0.77769  -0.13074
C          C       0.17565   0.45252   0.70019  -0.13406
C          C       0.46149   0.28141   0.67307  -0.12559
C          C       0.72784   0.18107   0.59211  -0.12511
C          C       0.83424   0.54040   0.64973  -0.12380
C          C       0.54553   0.73979   0.61901  -0.14027
C          C       0.25623   0.80341   0.77797  -0.13475
C          C       0.20596   0.45568   0.70784  -0.13466
C          C       0.46340   0.25388   0.69671  -0.13533
C          C       0.75330   0.21185   0.61710  -0.14065
C          C       0.80203   0.53842   0.68425  -0.13357
C          C       0.48536   0.71021   0.82553  -0.14006
C          C       0.29484   0.77954   0.67209  -0.13312
C          C       0.21892   0.50900   0.83056  -0.12642
C          C       0.51693   0.28896   0.75197  -0.13451
C          C       0.70899   0.21776   0.87773  -0.13102
C          C       0.77233   0.48335   0.81070  -0.13008
C          C       0.48846   0.68205   0.81244  -0.09405
C          C       0.32321   0.81001   0.67103  -0.09626
C          C       0.18895   0.50617   0.82117  -0.10400
C          C       0.51490   0.31646   0.73062  -0.10773
C          C       0.68347   0.18734   0.85165  -0.10932
C          C       0.80437   0.48545   0.77940  -0.09701
C          C       0.31276   0.51767   0.86206  -0.13001
C          C       0.48312   0.80005   0.73324  -0.12449
C          C       0.19953   0.68416   0.83818  -0.12341
C          C       0.51958   0.20228   0.85241  -0.12717
C          C       0.78875   0.31395   0.95099  -0.12380
C          C       0.28431   0.51587   0.83875  -0.13586
C          C       0.48435   0.77082   0.72094  -0.13872
C          C       0.22935   0.71497   0.80405  -0.13707
C          C       0.70438   0.48300   0.92102  -0.13633
C          C       0.51889   0.23001   0.81961  -0.13227
C          C       0.76319   0.28506   0.91093  -0.13853
C          C       0.73345   0.52941   0.71419  -0.13168
C          C       0.46618   0.19526   0.75630  -0.13061
C          C       0.80766   0.27010   0.72611  -0.13348
C          C       0.26594   0.45932   0.76200  -0.12900
C          C       0.53563   0.79885   0.80380  -0.13654
C          C       0.19961   0.73733   0.72772  -0.13278
C          C       0.70146   0.52769   0.74859  -0.09961
C          C       0.46679   0.16758   0.78865  -0.11637
C          C       0.83326   0.29887   0.76568  -0.10229
C          C       0.29434   0.46100   0.78437  -0.10054
C          C       0.53336   0.82763   0.82533  -0.10026
C          C       0.17005   0.70656   0.75888  -0.09892
C          C       0.51112   0.76999   0.75219   0.06189
C          C       0.22987   0.74232   0.75070   0.06122
C          C       0.25976   0.48654   0.79000   0.07316
C          C       0.49214   0.22741   0.77112   0.06203
C          C       0.77187   0.26222   0.79810   0.07240
C          C       0.73592   0.50738   0.80052   0.06100
C          C       0.51396   0.73967   0.73107   0.07489
C          C       0.26051   0.77529   0.73021   0.07084
C          C       0.22846   0.48389   0.77419   0.06381
C          C       0.49098   0.25671   0.73842   0.06166
C          C       0.74468   0.23081   0.76198   0.06204
C          C       0.77014   0.50984   0.76625   0.06521
C          C       0.67213   0.48065   0.95225  -0.12293
C          C       0.50528   0.85885   0.79676   0.07222
N          N       0.50473   0.63166   0.26741  -0.27487
N          N       0.37844   0.87609   0.21751  -0.28676
N          N       0.12819   0.49546   0.27194  -0.29127
N          N       0.50327   0.37391   0.21501  -0.29881
N          N       0.63152   0.12953   0.28169  -0.28255
N          N       0.87482   0.49961   0.25936  -0.28812
N          N       0.63528   0.52460   0.37128  -0.27528
N          N       0.46975   0.11440   0.34692  -0.28764
N          N       0.88335   0.36009   0.37804  -0.27999
N          N       0.35794   0.47389   0.35331  -0.28537
N          N       0.51718   0.88546   0.39526  -0.29131
N          N       0.11601   0.64049   0.30915  -0.29524
N          N       0.49852   0.62610   0.77893  -0.27845
N          N       0.37749   0.87374   0.72139  -0.28758
N          N       0.12771   0.49782   0.77174  -0.29690
N          N       0.50418   0.37080   0.71007  -0.29856
N          N       0.63286   0.12577   0.77815  -0.27797
N          N       0.87269   0.49691   0.74244  -0.29527
N          N       0.63367   0.52349   0.85247  -0.27484
N          N       0.47218   0.11239   0.85126  -0.28448
N          N       0.88289   0.35891   0.87308  -0.28290
N          N       0.35373   0.46829   0.85095  -0.28979
N          N       0.51829   0.88295   0.89391  -0.29655
N          N       0.11218   0.64092   0.81171  -0.29330

