data_crystal

_audit_creation_method 'AiiDA-DDEC plugin'

_cell_length_a        22.65395
_cell_length_b        22.60883
_cell_length_c         8.23399

_cell_angle_alpha     117.68762
_cell_angle_beta     58.23485
_cell_angle_gamma     120.18214

_symmetry_space_group_name_Hall 'P 1'
_symmetry_space_group_name_H-M  'P 1'

loop_
_symmetry_equiv_pos_as_xyz
 'x,y,z'

loop_
_atom_site_label
_atom_site_type_symbol
_atom_site_fract_x
_atom_site_fract_y
_atom_site_fract_z
_atom_site_charge
H          H       0.81778   0.47893   0.22542   0.12008
H          H       0.51685   0.33304   0.24468   0.12011
H          H       0.65909   0.18504   0.27261   0.12017
H          H       0.17733   0.51921   0.27015   0.11886
H          H       0.47726   0.66242   0.25731   0.12046
H          H       0.33825   0.81362   0.23112   0.11829
H          H       0.83052   0.36050   0.27946   0.10761
H          H       0.64194   0.47835   0.23905   0.10510
H          H       0.51753   0.16106   0.24722   0.10749
H          H       0.16565   0.63890   0.21868   0.10758
H          H       0.35250   0.51681   0.25627   0.10450
H          H       0.47638   0.83854   0.27540   0.10751
H          H       0.94231   0.37558   0.26780   0.11591
H          H       0.62518   0.57091   0.23080   0.11099
H          H       0.42422   0.04796   0.24310   0.11202
H          H       0.05374   0.62372   0.22858   0.11486
H          H       0.37042   0.42284   0.25494   0.11089
H          H       0.57082   0.95113   0.27326   0.11084
H          H       0.06990   0.44614   0.25185   0.11152
H          H       0.55026   0.62279   0.23774   0.11314
H          H       0.37356   0.92285   0.24401   0.11185
H          H       0.92582   0.55336   0.24660   0.11386
H          H       0.44556   0.37087   0.24674   0.11251
H          H       0.62123   0.07643   0.27415   0.11276
H          H       0.82516   0.47853   0.71240   0.11917
H          H       0.52209   0.33524   0.74483   0.11944
H          H       0.66448   0.18693   0.77211   0.12054
H          H       0.18027   0.52125   0.77707   0.11942
H          H       0.48127   0.66469   0.75965   0.12258
H          H       0.33986   0.81519   0.73775   0.11972
H          H       0.83409   0.36286   0.78893   0.10650
H          H       0.64742   0.48033   0.73508   0.10444
H          H       0.52195   0.16276   0.75155   0.10671
H          H       0.17084   0.64019   0.71592   0.10704
H          H       0.35708   0.51871   0.75543   0.10524
H          H       0.48052   0.83858   0.76637   0.10778
H          H       0.94555   0.37911   0.78440   0.11524
H          H       0.63081   0.57229   0.72294   0.11162
H          H       0.42889   0.05142   0.74947   0.11015
H          H       0.05938   0.62380   0.71699   0.11569
H          H       0.37384   0.42573   0.76451   0.10760
H          H       0.57476   0.95018   0.76597   0.11284
H          H       0.07337   0.44998   0.76588   0.11220
H          H       0.55559   0.62404   0.73104   0.11271
H          H       0.37717   0.92569   0.74651   0.11434
H          H       0.93182   0.55252   0.73265   0.11193
H          H       0.44877   0.37413   0.75851   0.11204
H          H       0.62617   0.07619   0.77144   0.11354
C          C       0.85036   0.41305   0.26167  -0.08841
C          C       0.58733   0.44089   0.24050  -0.07710
C          C       0.55353   0.14514   0.25678  -0.08637
C          C       0.14568   0.58614   0.23531  -0.09020
C          C       0.40720   0.55412   0.25452  -0.07282
C          C       0.44132   0.85401   0.26043  -0.08398
C          C       0.80360   0.42815   0.24385  -0.19292
C          C       0.56972   0.37459   0.24384  -0.19309
C          C       0.61928   0.19548   0.26280  -0.19235
C          C       0.19200   0.57038   0.25310  -0.18809
C          C       0.42436   0.62115   0.25723  -0.19695
C          C       0.37670   0.80326   0.24694  -0.19376
C          C       0.92427   0.45859   0.25766   0.09532
C          C       0.54099   0.46746   0.24046   0.10676
C          C       0.52638   0.07205   0.25956   0.09445
C          C       0.07175   0.54075   0.23896   0.09642
C          C       0.45405   0.52682   0.24951   0.10319
C          C       0.46851   0.92717   0.25793   0.09584
C          C       0.95692   0.52960   0.24828  -0.12599
C          C       0.46852   0.42615   0.24595  -0.12461
C          C       0.56723   0.04296   0.26593  -0.12668
C          C       0.03898   0.46981   0.24904  -0.12406
C          C       0.52689   0.56779   0.24123  -0.12262
C          C       0.42766   0.95626   0.25153  -0.12768
C          C       0.02893   0.56927   0.23805  -0.13175
C          C       0.42626   0.45529   0.25087  -0.12827
C          C       0.53894   0.97238   0.26527  -0.12916
C          C       0.96708   0.43006   0.25858  -0.13275
C          C       0.56912   0.53870   0.23655  -0.12729
C          C       0.45598   0.02682   0.25196  -0.12918
C          C       0.73051   0.37766   0.24709   0.41211
C          C       0.61981   0.35333   0.24730   0.41013
C          C       0.64238   0.26748   0.25597   0.40774
C          C       0.26490   0.62041   0.25281   0.40915
C          C       0.37442   0.64358   0.25727   0.40890
C          C       0.35306   0.73081   0.25143   0.41462
C          C       0.85497   0.41436   0.76371  -0.08618
C          C       0.59253   0.44284   0.73891  -0.07298
C          C       0.55837   0.14685   0.75937  -0.08680
C          C       0.15003   0.58787   0.73630  -0.08476
C          C       0.41169   0.55606   0.75444  -0.07639
C          C       0.44488   0.85489   0.75659  -0.08608
C          C       0.80946   0.42873   0.73864  -0.19649
C          C       0.57519   0.37659   0.74240  -0.19604
C          C       0.62427   0.19722   0.76359  -0.19333
C          C       0.19561   0.57209   0.75707  -0.19463
C          C       0.42866   0.62313   0.75782  -0.19669
C          C       0.37941   0.80463   0.74834  -0.19317
C          C       0.92897   0.45992   0.75877   0.09626
C          C       0.54577   0.46949   0.74066   0.10081
C          C       0.53120   0.07364   0.76127   0.09852
C          C       0.07616   0.54261   0.74026   0.09362
C          C       0.45856   0.52877   0.74974   0.10664
C          C       0.47231   0.92819   0.75548   0.09665
C          C       0.96233   0.52991   0.74109  -0.12470
C          C       0.47253   0.42879   0.75182  -0.11950
C          C       0.57195   0.04348   0.76413  -0.12805
C          C       0.04285   0.47259   0.75748  -0.12472
C          C       0.53190   0.56938   0.73768  -0.12649
C          C       0.43153   0.95836   0.75291  -0.12977
C          C       0.03415   0.57005   0.73189  -0.13267
C          C       0.43026   0.45779   0.75608  -0.12435
C          C       0.54312   0.97255   0.76106  -0.13200
C          C       0.97093   0.43262   0.76781  -0.13414
C          C       0.57425   0.54031   0.73266  -0.12771
C          C       0.46043   0.02920   0.75536  -0.12841
C          C       0.73598   0.37886   0.74419   0.41886
C          C       0.62534   0.35500   0.74477   0.40772
C          C       0.64727   0.26913   0.75593   0.41390
C          C       0.26860   0.62187   0.75530   0.41213
C          C       0.37854   0.64538   0.75774   0.40772
C          C       0.35648   0.73228   0.75235   0.41112
N          N       0.68735   0.40154   0.24459  -0.42731
N          N       0.59454   0.28603   0.25395  -0.43088
N          N       0.71092   0.31084   0.25147  -0.42635
N          N       0.30715   0.59570   0.25636  -0.42742
N          N       0.39984   0.71162   0.25584  -0.43246
N          N       0.28516   0.68762   0.25008  -0.43132
N          N       0.69319   0.40284   0.74028  -0.42954
N          N       0.59977   0.28770   0.75244  -0.43191
N          N       0.71580   0.31235   0.75166  -0.43324
N          N       0.31121   0.59736   0.75794  -0.42389
N          N       0.40369   0.71333   0.75589  -0.43199
N          N       0.28854   0.68893   0.75221  -0.42752

