data_crystal

_audit_creation_method 'AiiDA-DDEC plugin'

_cell_length_a        18.78322
_cell_length_b        18.80679
_cell_length_c         8.10767

_cell_angle_alpha     82.50631
_cell_angle_beta     68.61034
_cell_angle_gamma     120.15193

_symmetry_space_group_name_Hall 'P 1'
_symmetry_space_group_name_H-M  'P 1'

loop_
_symmetry_equiv_pos_as_xyz
 'x,y,z'

loop_
_atom_site_label
_atom_site_type_symbol
_atom_site_fract_x
_atom_site_fract_y
_atom_site_fract_z
_atom_site_charge
H          H       0.17912   0.15575   0.27838   0.12172
H          H       0.84072   0.01203   0.20610   0.11807
H          H       0.97986   0.79903   0.27192   0.11768
H          H       0.20190   0.00644   0.24539   0.10290
H          H       0.97196   0.16465   0.29234   0.10562
H          H       0.82615   0.79444   0.20839   0.10619
H          H       0.35001   0.03638   0.18019   0.10608
H          H       0.95545   0.28187   0.29563   0.10946
H          H       0.72053   0.66814   0.16843   0.10864
H          H       0.44899   0.30625   0.32911   0.10608
H          H       0.67192   0.12397   0.22038   0.10127
H          H       0.85342   0.51277   0.30297   0.10243
H          H       0.50655   0.12490   0.15662   0.10293
H          H       0.87091   0.34713   0.29814   0.10526
H          H       0.65551   0.51947   0.16369   0.10359
H          H       0.29661   0.22117   0.33928   0.10992
H          H       0.75276   0.05686   0.23116   0.10893
H          H       0.92020   0.66249   0.29986   0.10400
H          H       0.58941   0.39333   0.21746   0.10193
H          H       0.59501   0.16707   0.26639   0.10317
H          H       0.82419   0.41088   0.22586   0.10053
H          H       0.17643   0.17596   0.79136   0.11903
H          H       0.83752   0.03283   0.71860   0.11822
H          H       0.98139   0.82308   0.76593   0.11967
H          H       0.20220   0.02919   0.74810   0.10631
H          H       0.97389   0.18921   0.78829   0.10847
H          H       0.81976   0.81406   0.72940   0.10737
H          H       0.35086   0.06044   0.68019   0.10710
H          H       0.96234   0.30969   0.77441   0.10972
H          H       0.69481   0.67447   0.76314   0.11051
H          H       0.44863   0.32897   0.83430   0.10260
H          H       0.66231   0.14064   0.75986   0.10392
H          H       0.87911   0.55353   0.71398   0.10469
H          H       0.50649   0.14859   0.65924   0.10333
H          H       0.88020   0.37704   0.77248   0.10455
H          H       0.62547   0.52183   0.77827   0.10721
H          H       0.29489   0.24230   0.84981   0.10992
H          H       0.74555   0.07532   0.75845   0.10998
H          H       0.94516   0.70364   0.70972   0.11190
H          H       0.59171   0.41821   0.71299   0.10239
H          H       0.59953   0.19366   0.75280   0.09836
H          H       0.81146   0.42612   0.77922   0.09880
C          C       0.22258   0.06987   0.25939  -0.06924
C          C       0.91373   0.12799   0.26405  -0.08697
C          C       0.86279   0.76717   0.23045  -0.08401
C          C       0.16369   0.09273   0.26998  -0.20422
C          C       0.89686   0.05285   0.23625  -0.19454
C          C       0.93803   0.81996   0.25220  -0.19445
C          C       0.31184   0.12249   0.25756   0.09624
C          C       0.86175   0.16452   0.26149   0.09047
C          C       0.82629   0.67816   0.23205   0.09512
C          C       0.34288   0.20043   0.29649  -0.11556
C          C       0.77955   0.12093   0.24454  -0.12122
C          C       0.86285   0.63191   0.26763  -0.11996
C          C       0.42999   0.24909   0.28884  -0.12943
C          C       0.73298   0.15904   0.24050  -0.13210
C          C       0.82503   0.54674   0.26784  -0.13637
C          C       0.49157   0.22370   0.23952   0.07109
C          C       0.76481   0.24247   0.25572   0.05980
C          C       0.74949   0.50289   0.23019   0.06288
C          C       0.46065   0.14600   0.20001  -0.14060
C          C       0.84538   0.28463   0.27795  -0.13437
C          C       0.71259   0.54891   0.19665  -0.13629
C          C       0.37257   0.09620   0.21139  -0.12671
C          C       0.89310   0.24724   0.27902  -0.12651
C          C       0.74978   0.63394   0.19802  -0.12642
C          C       0.07688   0.03676   0.26363   0.41199
C          C       0.95117   0.01960   0.24579   0.41304
C          C       0.96983   0.90853   0.25112   0.41344
C          C       0.58322   0.27517   0.23596   0.07791
C          C       0.71646   0.28405   0.24540   0.06761
C          C       0.71005   0.41226   0.22906   0.07452
C          C       0.62456   0.36283   0.22688  -0.16928
C          C       0.62920   0.23638   0.24920  -0.18370
C          C       0.75604   0.37230   0.23244  -0.17983
C          C       0.22171   0.09182   0.76544  -0.07147
C          C       0.91396   0.15135   0.76548  -0.09247
C          C       0.86041   0.78947   0.73847  -0.08588
C          C       0.16206   0.11393   0.77834  -0.20133
C          C       0.89544   0.07487   0.74306  -0.19404
C          C       0.93771   0.84304   0.75384  -0.18787
C          C       0.31080   0.14456   0.76450   0.09672
C          C       0.86168   0.18773   0.76423   0.09236
C          C       0.82515   0.70127   0.73649   0.09651
C          C       0.34149   0.22202   0.80532  -0.12314
C          C       0.77552   0.14148   0.76214  -0.11851
C          C       0.87515   0.66420   0.72377  -0.11682
C          C       0.42909   0.27144   0.79537  -0.13166
C          C       0.72803   0.17911   0.76329  -0.13701
C          C       0.83694   0.57840   0.72773  -0.13201
C          C       0.49140   0.24687   0.74338   0.07403
C          C       0.76378   0.26535   0.76473   0.06658
C          C       0.74627   0.52404   0.74649   0.06874
C          C       0.46032   0.16925   0.70390  -0.13281
C          C       0.84961   0.31105   0.76813  -0.13323
C          C       0.69619   0.56109   0.76082  -0.13326
C          C       0.37228   0.11926   0.71519  -0.12065
C          C       0.89686   0.27313   0.76895  -0.12408
C          C       0.73506   0.64760   0.75334  -0.12604
C          C       0.07584   0.05879   0.76935   0.41157
C          C       0.95020   0.04183   0.75107   0.41294
C          C       0.96855   0.93068   0.75745   0.41012
C          C       0.58331   0.29881   0.73912   0.07476
C          C       0.71464   0.30645   0.75728   0.06340
C          C       0.70658   0.43333   0.74642   0.06939
C          C       0.62416   0.38610   0.73238  -0.17296
C          C       0.63054   0.26094   0.74864  -0.16643
C          C       0.75009   0.39194   0.76032  -0.17854
N          N       0.02987   0.07171   0.25798  -0.43243
N          N       0.91805   0.93788   0.24152  -0.43244
N          N       0.04964   0.95526   0.26161  -0.43408
N          N       0.02979   0.09446   0.76027  -0.43615
N          N       0.91631   0.95969   0.74946  -0.42931
N          N       0.04815   0.97705   0.76854  -0.42534

