data_crystal

_audit_creation_method 'AiiDA-DDEC plugin'

_cell_length_a        24.48351
_cell_length_b        26.08464
_cell_length_c         7.98976

_cell_angle_alpha     89.40098
_cell_angle_beta     67.88266
_cell_angle_gamma     90.05393

_symmetry_space_group_name_Hall 'P 1'
_symmetry_space_group_name_H-M  'P 1'

loop_
_symmetry_equiv_pos_as_xyz
 'x,y,z'

loop_
_atom_site_label
_atom_site_type_symbol
_atom_site_fract_x
_atom_site_fract_y
_atom_site_fract_z
_atom_site_charge
H          H       0.44242   0.21010   0.42521   0.06119
H          H       0.55658   0.70914   0.07653   0.06276
H          H       0.40930   0.02023   0.04565   0.10813
H          H       0.58867   0.52072   0.47694   0.10739
H          H       0.49077   0.07975   0.03050   0.12133
H          H       0.50736   0.57933   0.48672   0.12122
H          H       0.36582   0.17757   0.41688   0.10911
H          H       0.63196   0.67556   0.08029   0.10792
H          H       0.28571   0.11903   0.43123   0.09750
H          H       0.71197   0.61868   0.07519   0.09978
H          H       0.18600   0.11126   0.06524   0.09962
H          H       0.81404   0.60887   0.44843   0.09844
H          H       0.09665   0.16193   0.09539   0.11245
H          H       0.90355   0.66016   0.41207   0.11125
H          H       0.98916   0.05244   0.48549   0.10165
H          H       0.00848   0.55716   0.00109   0.10375
H          H       0.07757   0.00177   0.45575   0.10839
H          H       0.91994   0.50502   0.04112   0.10684
H          H       0.31461   0.72871   0.43205   0.09880
H          H       0.68484   0.22825   0.06692   0.09965
H          H       0.40312   0.67819   0.40997   0.11139
H          H       0.59517   0.17848   0.09429   0.11079
H          H       0.51187   0.78219  -0.00064   0.10300
H          H       0.48874   0.28351   0.49435   0.10291
H          H       0.42398   0.83344   0.02404   0.10819
H          H       0.57761   0.33434   0.46233   0.10786
H          H       0.09418   0.81447   0.46307   0.10671
H          H       0.90635   0.31651   0.03697   0.10745
H          H       0.01074   0.75648   0.48187   0.12209
H          H       0.98933   0.25898   0.02068   0.12197
H          H       0.13067   0.66278   0.06614   0.10862
H          H       0.86828   0.16191   0.43300   0.10638
H          H       0.21246   0.71977   0.04795   0.09842
H          H       0.78707   0.21880   0.44977   0.09858
H          H       0.23740   0.09440   0.24762   0.10080
H          H       0.75997   0.59481   0.27103   0.10217
H          H       0.11728   0.95651   0.18231   0.10434
H          H       0.88237   0.45649   0.31851   0.10547
H          H       0.12461   0.86317   0.17886   0.10459
H          H       0.87548   0.36308   0.31797   0.10440
H          H       0.38259   0.87997   0.30915   0.10449
H          H       0.61850   0.38132   0.18197   0.10498
H          H       0.37446   0.97336   0.31778   0.10490
H          H       0.62437   0.47491   0.18905   0.10472
H          H       0.26386   0.74235   0.23915   0.10359
H          H       0.73638   0.24279   0.25500   0.10299
H          H       0.94344   0.12579   0.41817   0.06203
H          H       0.05430   0.63207   0.06453   0.06150
H          H       0.44423   0.21252   0.91919   0.06295
H          H       0.55598   0.70957   0.57452   0.05972
H          H       0.40896   0.02673   0.52204   0.10597
H          H       0.58962   0.52198   0.97426   0.10762
H          H       0.49065   0.08590   0.50650   0.12134
H          H       0.50744   0.57991   0.98374   0.12120
H          H       0.36885   0.17530   0.93388   0.10629
H          H       0.63131   0.67767   0.58226   0.10777
H          H       0.28876   0.11735   0.94770   0.09734
H          H       0.71196   0.62082   0.57419   0.09851
H          H       0.18802   0.11049   0.55347   0.09772
H          H       0.81367   0.61088   0.95328   0.09883
H          H       0.09938   0.16123   0.57494   0.11110
H          H       0.90301   0.66285   0.91541   0.11093
H          H       0.99071   0.05743   0.98645   0.10215
H          H       0.00808   0.56083   0.50145   0.10351
H          H       0.07835   0.00639   0.96277   0.10730
H          H       0.91981   0.50853   0.54049   0.10715
H          H       0.31416   0.72969   0.93046   0.09802
H          H       0.68693   0.23005   0.56649   0.09817
H          H       0.40249   0.67848   0.90626   0.11124
H          H       0.59724   0.18059   0.59050   0.11098
H          H       0.51134   0.78281   0.49685   0.10206
H          H       0.49077   0.28395  -0.00363   0.10201
H          H       0.42399   0.83438   0.52313   0.10739
H          H       0.57947   0.33423   0.96906   0.10665
H          H       0.09266   0.81849   0.96402   0.10637
H          H       0.90992   0.31990   0.52607   0.10645
H          H       0.00940   0.76053   0.98378   0.12206
H          H       0.99274   0.26169   0.50636   0.12201
H          H       0.13014   0.66336   0.58330   0.10790
H          H       0.87205   0.16494   0.92033   0.10725
H          H       0.21214   0.72058   0.56370   0.09895
H          H       0.79084   0.22227   0.93972   0.09858
H          H       0.23846   0.09673   0.74866   0.10321
H          H       0.76013   0.59702   0.76809   0.10221
H          H       0.11784   0.95907   0.68513   0.10497
H          H       0.88213   0.45963   0.82345   0.10451
H          H       0.12436   0.86566   0.68505   0.10544
H          H       0.87716   0.36594   0.81537   0.10522
H          H       0.38473   0.88198   0.80125   0.10526
H          H       0.61848   0.38223   0.68936   0.10597
H          H       0.37778   0.97551   0.80486   0.10614
H          H       0.62383   0.47582   0.69434   0.10496
H          H       0.26332   0.74455   0.74285   0.10197
H          H       0.74001   0.24492   0.74810   0.10189
H          H       0.94581   0.12858   0.90452   0.05982
H          H       0.05393   0.63516   0.56944   0.06218
C          C       0.48305   0.19837   0.31436   0.07598
C          C       0.51559   0.69714   0.18693   0.07423
C          C       0.39991   0.05400   0.13034  -0.12460
C          C       0.59802   0.55410   0.38762  -0.12630
C          C       0.44555   0.08723   0.12008  -0.14739
C          C       0.55238   0.58677   0.39405  -0.14761
C          C       0.43497   0.13212   0.22351   0.19684
C          C       0.56282   0.63078   0.28264   0.19609
C          C       0.37610   0.14342   0.33396  -0.17118
C          C       0.62161   0.64204   0.16910  -0.17131
C          C       0.33062   0.11029   0.34216  -0.12358
C          C       0.66710   0.60976   0.16585  -0.12706
C          C       0.14284   0.09856   0.15841  -0.13557
C          C       0.85663   0.59770   0.34959  -0.13529
C          C       0.09336   0.12701   0.17429  -0.09330
C          C       0.90627   0.62653   0.33000  -0.09505
C          C       0.03705   0.11071   0.29234   0.05293
C          C       0.96189   0.61230   0.20404   0.05321
C          C       0.03237   0.06503   0.39170  -0.12653
C          C       0.96592   0.56801   0.10152  -0.12578
C          C       0.08207   0.03619   0.37358  -0.13479
C          C       0.91613   0.53844   0.12489  -0.13308
C          C       0.35787   0.74030   0.33651  -0.13513
C          C       0.64182   0.24040   0.16067  -0.13514
C          C       0.40697   0.71191   0.32495  -0.09577
C          C       0.59201   0.21242   0.17521  -0.09514
C          C       0.46341   0.72667   0.20322   0.05410
C          C       0.53583   0.22766   0.29500   0.05423
C          C       0.46860   0.77103   0.09669  -0.12794
C          C       0.53161   0.27207   0.39718  -0.12665
C          C       0.41926   0.80006   0.11133  -0.13176
C          C       0.58156   0.30079   0.37895  -0.13235
C          C       0.10168   0.78207   0.37266  -0.12303
C          C       0.89841   0.28333   0.12679  -0.12537
C          C       0.05511   0.74973   0.38468  -0.15225
C          C       0.94480   0.25109   0.11600  -0.14732
C          C       0.06396   0.70667   0.27305   0.19579
C          C       0.93563   0.20697   0.22636   0.19628
C          C       0.12193   0.69586   0.15393  -0.17196
C          C       0.87744   0.19547   0.34457  -0.17015
C          C       0.16831   0.72810   0.14370  -0.12452
C          C       0.83126   0.22773   0.35403  -0.12637
C          C       0.34123   0.06453   0.24310   0.06491
C          C       0.65654   0.56461   0.27168   0.06699
C          C       0.13854   0.05235   0.25609   0.08015
C          C       0.86027   0.55282   0.24920   0.07716
C          C       0.36266   0.78511   0.23154   0.07695
C          C       0.63788   0.28546   0.26042   0.07813
C          C       0.15924   0.77246   0.24940   0.06334
C          C       0.84062   0.27282   0.24824   0.06569
C          C       0.29206   0.03072   0.24978   0.02584
C          C       0.70587   0.53099   0.26448   0.02670
C          C       0.24036   0.05282   0.24726  -0.18406
C          C       0.75743   0.55323   0.26755  -0.18601
C          C       0.19218   0.02438   0.24492   0.02191
C          C       0.80629   0.52472   0.26372   0.02525
C          C       0.19690   0.97004   0.23461   0.03277
C          C       0.80214   0.47030   0.26962   0.03210
C          C       0.15353   0.93834   0.20677  -0.13342
C          C       0.84608   0.43846   0.29408  -0.13316
C          C       0.15762   0.88606   0.20476  -0.13208
C          C       0.84224   0.38617   0.29370  -0.13220
C          C       0.34679   0.89839   0.28279  -0.13456
C          C       0.65348   0.39935   0.21323  -0.13473
C          C       0.34233   0.95061   0.28708  -0.13243
C          C       0.65683   0.45160   0.21666  -0.13189
C          C       0.29518   0.97632   0.25761   0.03248
C          C       0.70349   0.47680   0.25010   0.03135
C          C       0.24825   0.94594   0.24425   0.00575
C          C       0.75091   0.44624   0.25930   0.00595
C          C       0.26082   0.78396   0.23933  -0.18640
C          C       0.73953   0.28439   0.25443  -0.18669
C          C       0.30900   0.81270   0.24033   0.02452
C          C       0.69162   0.31305   0.25128   0.02452
C          C       0.30394   0.86696   0.25125   0.03238
C          C       0.69639   0.36743   0.24321   0.03222
C          C       0.25258   0.89107   0.24182   0.00643
C          C       0.74729   0.39139   0.25630   0.00647
C          C       0.20549   0.86050   0.23071   0.03161
C          C       0.79451   0.36080   0.26661   0.03064
C          C       0.20890   0.80614   0.23889   0.02705
C          C       0.79121   0.30650   0.25715   0.02708
C          C       0.98431   0.13972   0.31163   0.07360
C          C       0.01447   0.64220   0.18089   0.07634
C          C       0.48510   0.20019   0.81056   0.07357
C          C       0.51503   0.69771   0.68515   0.07735
C          C       0.40047   0.05851   0.61540  -0.12641
C          C       0.59841   0.55537   0.88508  -0.12517
C          C       0.44629   0.09156   0.60546  -0.14758
C          C       0.55246   0.58766   0.89171  -0.14700
C          C       0.43681   0.13386   0.72081   0.19426
C          C       0.56264   0.63187   0.78138   0.19679
C          C       0.37863   0.14303   0.84224  -0.17074
C          C       0.62137   0.64372   0.66893  -0.17191
C          C       0.33297   0.11018   0.85015  -0.12574
C          C       0.66712   0.61156   0.66435  -0.12529
C          C       0.14470   0.09918   0.64906  -0.13652
C          C       0.85628   0.60004   0.85361  -0.13443
C          C       0.09566   0.12759   0.66018  -0.09474
C          C       0.90578   0.62915   0.83365  -0.09750
C          C       0.03924   0.11287   0.78210   0.05344
C          C       0.96148   0.61520   0.70748   0.05157
C          C       0.03397   0.06867   0.88933  -0.12692
C          C       0.96563   0.57122   0.60343  -0.12325
C          C       0.08322   0.03973   0.87535  -0.13283
C          C       0.91599   0.54151   0.62629  -0.13181
C          C       0.35744   0.74125   0.83510  -0.13633
C          C       0.64388   0.24194   0.66061  -0.13696
C          C       0.40639   0.71249   0.82251  -0.09353
C          C       0.59416   0.21407   0.67344  -0.09443
C          C       0.46287   0.72719   0.70097   0.05243
C          C       0.53793   0.22903   0.79367   0.05280
C          C       0.46820   0.77161   0.59471  -0.12535
C          C       0.53369   0.27278   0.89894  -0.12543
C          C       0.41906   0.80099   0.61043  -0.13354
C          C       0.58357   0.30133   0.88270  -0.13370
C          C       0.10057   0.78537   0.87660  -0.12427
C          C       0.90193   0.28652   0.61508  -0.12512
C          C       0.05397   0.75302   0.88915  -0.15036
C          C       0.94829   0.25397   0.60259  -0.14845
C          C       0.06304   0.70920   0.78096   0.19666
C          C       0.93919   0.20980   0.71268   0.19625
C          C       0.12130   0.69741   0.66657  -0.17050
C          C       0.88113   0.19850   0.83212  -0.17028
C          C       0.16771   0.72968   0.65588  -0.12382
C          C       0.83497   0.23087   0.84291  -0.12539
C          C       0.34274   0.06666   0.74007   0.06546
C          C       0.65682   0.56621   0.76904   0.06479
C          C       0.13978   0.05451   0.75475   0.07983
C          C       0.86012   0.55540   0.75182   0.07648
C          C       0.36249   0.78638   0.73143   0.07896
C          C       0.63988   0.28661   0.76234   0.07929
C          C       0.15844   0.77496   0.75696   0.06392
C          C       0.84424   0.27593   0.73732   0.06670
C          C       0.29333   0.03282   0.74813   0.02722
C          C       0.70623   0.53285   0.76254   0.02610
C          C       0.24147   0.05513   0.74762  -0.18529
C          C       0.75761   0.55540   0.76610  -0.18595
C          C       0.19319   0.02662   0.74615   0.02323
C          C       0.80634   0.52718   0.76481   0.02364
C          C       0.19759   0.97230   0.73719   0.03140
C          C       0.80251   0.47277   0.77055   0.03304
C          C       0.15392   0.94077   0.71020  -0.13332
C          C       0.84653   0.44128   0.79610  -0.13290
C          C       0.15761   0.88850   0.70983  -0.13205
C          C       0.84373   0.38900   0.79196  -0.13250
C          C       0.34841   0.90041   0.77788  -0.13470
C          C       0.65388   0.40058   0.71762  -0.13398
C          C       0.34449   0.95270   0.78008  -0.13241
C          C       0.65691   0.45288   0.72008  -0.13355
C          C       0.29653   0.97844   0.75528   0.03247
C          C       0.70388   0.47856   0.75035   0.03295
C          C       0.24901   0.94807   0.74574   0.00600
C          C       0.75157   0.44836   0.75932   0.00417
C          C       0.26043   0.78616   0.74318  -0.18560
C          C       0.74242   0.28652   0.74982  -0.18433
C          C       0.30906   0.81458   0.74192   0.02228
C          C       0.69355   0.31462   0.75170   0.02276
C          C       0.30458   0.86893   0.75170   0.03274
C          C       0.69756   0.36905   0.74488   0.03234
C          C       0.25302   0.89320   0.74444   0.00614
C          C       0.74854   0.39350   0.75569   0.00748
C          C       0.20538   0.86285   0.73597   0.03219
C          C       0.79652   0.36340   0.76274   0.03197
C          C       0.20834   0.80849   0.74508   0.02711
C          C       0.79419   0.30919   0.74983   0.02475
C          C       0.98700   0.14220   0.79862   0.07437
C          C       0.01397   0.64505   0.68583   0.07776
N          N       0.48501   0.16108   0.20651  -0.30617
N          N       0.51290   0.65941   0.29645  -0.30559
N          N       0.98624   0.17884   0.20843  -0.30602
N          N       0.01340   0.67810   0.29282  -0.30686
N          N       0.48713   0.16258   0.70372  -0.30518
N          N       0.51251   0.66020   0.79531  -0.30659
N          N       0.98961   0.18134   0.69471  -0.30519
N          N       0.01258   0.68077   0.79879  -0.30796

