data_crystal

_audit_creation_method 'AiiDA-DDEC plugin'

_cell_length_a        35.25397
_cell_length_b        35.28942
_cell_length_c         8.01875

_cell_angle_alpha     76.34687
_cell_angle_beta     83.57944
_cell_angle_gamma     119.97668

_symmetry_space_group_name_Hall 'P 1'
_symmetry_space_group_name_H-M  'P 1'

loop_
_symmetry_equiv_pos_as_xyz
 'x,y,z'

loop_
_atom_site_label
_atom_site_type_symbol
_atom_site_fract_x
_atom_site_fract_y
_atom_site_fract_z
_atom_site_charge
H          H       0.41931   0.42131   0.29059   0.11889
H          H       0.57293   0.99729   0.28672   0.11672
H          H       0.00425   0.58334   0.23163   0.11389
H          H       0.56094   0.56655   0.23473   0.11432
H          H       0.44370   0.01099   0.19714   0.11768
H          H       0.99648   0.43997   0.23211   0.11665
H          H       0.54757   0.59567   0.40138   0.10520
H          H       0.38420   0.94462   0.36391   0.10519
H          H       0.03996   0.44329   0.46838   0.10586
H          H       0.42970   0.36695   0.50078   0.10837
H          H       0.60652   0.03840   0.44904   0.10829
H          H       0.94712   0.57557   0.34380   0.10506
H          H       0.55749   0.66908   0.41062   0.10545
H          H       0.31042   0.87605   0.38553   0.10303
H          H       0.10574   0.43636   0.50272   0.10540
H          H       0.42830   0.29493   0.52236   0.10153
H          H       0.67926   0.10402   0.45674   0.10217
H          H       0.88056   0.58135   0.36478   0.10363
H          H       0.44702   0.64292   0.17475   0.11334
H          H       0.37885   0.82918   0.09674   0.11140
H          H       0.19157   0.55646   0.03085   0.11362
H          H       0.54796   0.37202   0.07837   0.11097
H          H       0.65944   0.20045   0.10064   0.11501
H          H       0.81100   0.46229   0.20064   0.11119
H          H       0.43688   0.56886   0.16505   0.10221
H          H       0.45319   0.89785   0.07607   0.10268
H          H       0.12644   0.56574   0.00610   0.10431
H          H       0.55064   0.44441   0.06086   0.10330
H          H       0.58691   0.13471   0.09045   0.11146
H          H       0.87871   0.45791   0.16815   0.10601
H          H       0.62454   0.44064   0.18092   0.11899
H          H       0.56718   0.20453   0.00551   0.11838
H          H       0.82819   0.39297   0.05813   0.11461
H          H       0.37667   0.55713   0.03705   0.11590
H          H       0.44275   0.82180   0.17343   0.11459
H          H       0.19844   0.63852   0.11268   0.11664
H          H       0.69596   0.44153   0.17815   0.12511
H          H       0.56757   0.27593  -0.00346   0.12486
H          H       0.75898   0.32193   0.05004   0.12279
H          H       0.31223   0.56636  -0.00390   0.12465
H          H       0.43757   0.75019   0.14985   0.12276
H          H       0.27361   0.70746   0.09401   0.12575
H          H       0.75713   0.57052   0.28397   0.11207
H          H       0.44071   0.19259   0.40700   0.10958
H          H       0.80132   0.23663   0.33472   0.11167
H          H       0.21880   0.43391   0.40644   0.10963
H          H       0.56428   0.79408   0.28454   0.11265
H          H       0.20472   0.76220   0.32768   0.10910
H          H       0.68726   0.57078   0.28038   0.11291
H          H       0.44027   0.12202   0.41706   0.11518
H          H       0.86974   0.30674   0.34430   0.11048
H          H       0.28258   0.42451   0.44892   0.11281
H          H       0.57035   0.86582   0.30477   0.11235
H          H       0.13080   0.69440   0.34705   0.11232
H          H       0.80065   0.54932   0.36112   0.06543
H          H       0.46167   0.25591   0.43620   0.06038
H          H       0.73112   0.18608   0.39415   0.06302
H          H       0.18630   0.47106   0.43378   0.06456
H          H       0.52799   0.71848   0.39687   0.06563
H          H       0.26646   0.80469   0.35145   0.05769
H          H       0.43759   0.43816   0.75270   0.11995
H          H       0.55850   0.99570   0.74293   0.11428
H          H       0.00427   0.56149   0.69178   0.11646
H          H       0.57836   0.57391   0.76725   0.11418
H          H       0.42345   0.00278   0.70902   0.11641
H          H       0.99719   0.41459   0.79075   0.11753
H          H       0.56813   0.61116   0.90384   0.10892
H          H       0.36560   0.93574   0.87923   0.10681
H          H       0.04256   0.42302   0.01916   0.11051
H          H       0.44010   0.37981   0.96630   0.10794
H          H       0.58678   0.03173   0.92691   0.10408
H          H       0.94647   0.54697   0.84724   0.10723
H          H       0.57564   0.68375   0.90975   0.10197
H          H       0.29172   0.86699   0.90075   0.10296
H          H       0.10996   0.41895   0.04921   0.10300
H          H       0.43301   0.30515   0.99158   0.10313
H          H       0.65975   0.09501   0.94491   0.10250
H          H       0.88051   0.55377   0.86991   0.10652
H          H       0.45973   0.64941   0.70270   0.11211
H          H       0.36050   0.81994   0.61569   0.11090
H          H       0.19341   0.54103   0.58320   0.11357
H          H       0.55716   0.37686   0.57290   0.10947
H          H       0.64779   0.19597   0.57576   0.11438
H          H       0.81541   0.44489   0.64900   0.10959
H          H       0.45272   0.57729   0.69087   0.10805
H          H       0.43476   0.89033   0.58332   0.10623
H          H       0.12603   0.54550   0.55349   0.11396
H          H       0.56518   0.45209   0.55091   0.10367
H          H       0.57373   0.13267   0.56125   0.10868
H          H       0.88281   0.43902   0.62033   0.10447
H          H       0.62727   0.43703   0.68192   0.11502
H          H       0.56155   0.19878   0.52804   0.11832
H          H       0.83124   0.37985   0.57045   0.11404
H          H       0.38330   0.55841   0.52122   0.11206
H          H       0.43567   0.81412   0.66367   0.11905
H          H       0.19800   0.63138   0.60035   0.11744
H          H       0.69418   0.42938   0.66552   0.12518
H          H       0.56954   0.27397   0.51363   0.12505
H          H       0.75894   0.31613   0.54630   0.12288
H          H       0.31277   0.55780   0.49960   0.12150
H          H       0.43920   0.74562   0.65554   0.12280
H          H       0.26873   0.70463   0.58675   0.12577
H          H       0.76966   0.55690   0.77460   0.11219
H          H       0.43912   0.19921   0.89889   0.10990
H          H       0.78398   0.21545   0.83538   0.11048
H          H       0.23367   0.42957   0.94328   0.11140
H          H       0.56621   0.80508   0.79380   0.11235
H          H       0.18676   0.74515   0.83387   0.11085
H          H       0.70348   0.56466   0.79117   0.11545
H          H       0.43148   0.12501   0.91601   0.11284
H          H       0.85575   0.27857   0.86169   0.11114
H          H       0.30328   0.43038   0.96747   0.11473
H          H       0.56322   0.87326   0.80026   0.11169
H          H       0.11701   0.67382   0.84181   0.11252
H          H       0.80225   0.52221   0.87547   0.06515
H          H       0.46347   0.26247   0.92255   0.06108
H          H       0.71261   0.17422   0.89194   0.06205
H          H       0.19271   0.45608   0.96614   0.06604
H          H       0.54264   0.73245   0.89120   0.06687
H          H       0.24762   0.79316   0.86030   0.05976
C          C       0.48906   0.53411   0.26915   0.02560
C          C       0.46803   0.96551   0.22604   0.02883
C          C       0.03963   0.50962   0.22946   0.03272
C          C       0.49067   0.45345   0.26867   0.03109
C          C       0.54810   0.04243   0.26130   0.02676
C          C       0.95959   0.51313   0.23754   0.01933
C          C       0.44851   0.49210   0.27897   0.10033
C          C       0.50614   0.96246   0.25040   0.09101
C          C       0.04142   0.55094   0.22816   0.09539
C          C       0.53148   0.49607   0.24880   0.09335
C          C       0.51011   0.04553   0.23593   0.09740
C          C       0.95868   0.47226   0.23347   0.10066
C          C       0.45056   0.45298   0.28184  -0.17388
C          C       0.54448   0.00068   0.26927  -0.17381
C          C       0.00157   0.55129   0.23218  -0.17330
C          C       0.52922   0.53460   0.25043  -0.17539
C          C       0.47167   0.00720   0.21921  -0.16695
C          C       0.99847   0.47171   0.23284  -0.16958
C          C       0.49190   0.57670   0.27928   0.08057
C          C       0.42465   0.92632   0.22041   0.07315
C          C       0.07891   0.50514   0.23669   0.08000
C          C       0.48993   0.41081   0.27800   0.07268
C          C       0.59077   0.08148   0.27109   0.07518
C          C       0.91905   0.51636   0.25186   0.07390
C          C       0.40655   0.48830   0.28130  -0.09353
C          C       0.50719   0.92272   0.25551  -0.09792
C          C       0.08170   0.59027   0.23130  -0.10106
C          C       0.57396   0.50084   0.23567  -0.09369
C          C       0.50817   0.08488   0.23144  -0.09128
C          C       0.92079   0.43105   0.22903  -0.10003
C          C       0.52612   0.60620   0.34674  -0.14231
C          C       0.38347   0.92021   0.30116  -0.12822
C          C       0.07309   0.46772   0.37205  -0.13730
C          C       0.45515   0.36795   0.40634  -0.13700
C          C       0.61825   0.07378   0.37040  -0.14052
C          C       0.91820   0.55128   0.30642  -0.13607
C          C       0.53152   0.64751   0.35381  -0.12177
C          C       0.34180   0.88126   0.31505  -0.12876
C          C       0.10995   0.46401   0.39139  -0.12606
C          C       0.45457   0.32762   0.41887  -0.12665
C          C       0.65918   0.11074   0.37502  -0.13102
C          C       0.88010   0.55417   0.32141  -0.12955
C          C       0.50328   0.66148   0.29071   0.04411
C          C       0.33944   0.84727   0.24599   0.05493
C          C       0.15305   0.49613   0.26919   0.04636
C          C       0.48797   0.32856   0.30098   0.04907
C          C       0.67444   0.15693   0.27862   0.04796
C          C       0.84080   0.52217   0.28330   0.04759
C          C       0.46885   0.63215   0.22427  -0.10734
C          C       0.38045   0.85435   0.15707  -0.09701
C          C       0.15839   0.53231   0.12753  -0.10480
C          C       0.52255   0.37139   0.17156  -0.09534
C          C       0.64745   0.16481   0.17700  -0.11164
C          C       0.84111   0.48700   0.23141  -0.09957
C          C       0.46311   0.59053   0.21958  -0.12755
C          C       0.42205   0.89293   0.14584  -0.13193
C          C       0.12205   0.53730   0.11360  -0.12353
C          C       0.52377   0.41178   0.16213  -0.12459
C          C       0.60669   0.12793   0.17294  -0.12173
C          C       0.87934   0.48460   0.21426  -0.13115
C          C       0.61071   0.50512   0.23128  -0.09643
C          C       0.50474   0.11799   0.22516  -0.09618
C          C       0.89110   0.39444   0.21752  -0.08606
C          C       0.37121   0.48628   0.27206  -0.09461
C          C       0.50911   0.88914   0.25323  -0.09328
C          C       0.11702   0.62337   0.23655  -0.09325
C          C       0.65101   0.50572   0.23112   0.11603
C          C       0.50424   0.15831   0.21557   0.11724
C          C       0.85342   0.35457   0.20433   0.11350
C          C       0.33414   0.49047   0.24864   0.11622
C          C       0.50676   0.84869   0.24235   0.11300
C          C       0.15928   0.66145   0.23255   0.11982
C          C       0.65365   0.46886   0.20361  -0.11231
C          C       0.54011   0.20231   0.09555  -0.11889
C          C       0.82183   0.35866   0.12040  -0.11481
C          C       0.34219   0.53071   0.12017  -0.11748
C          C       0.46906   0.81544   0.19902  -0.11595
C          C       0.20021   0.66547   0.16151  -0.11728
C          C       0.69316   0.46919   0.20266  -0.15467
C          C       0.54036   0.24208   0.09019  -0.15221
C          C       0.78340   0.31931   0.11544  -0.15166
C          C       0.30646   0.53597   0.09700  -0.15380
C          C       0.46590   0.77549   0.18685  -0.15148
C          C       0.24197   0.70377   0.15085  -0.14577
C          C       0.73104   0.50533   0.23307   0.20665
C          C       0.50542   0.23989   0.20463   0.20220
C          C       0.77454   0.27454   0.19574   0.21365
C          C       0.26160   0.50196   0.20314   0.20918
C          C       0.49935   0.76643   0.22242   0.20778
C          C       0.24489   0.73930   0.21132   0.19997
C          C       0.72835   0.54207   0.26092  -0.17791
C          C       0.46882   0.19568   0.32001  -0.17704
C          C       0.80681   0.27065   0.27483  -0.17330
C          C       0.25342   0.46130   0.32798  -0.17387
C          C       0.53745   0.79990   0.26221  -0.17625
C          C       0.20392   0.73535   0.28097  -0.18111
C          C       0.68919   0.54241   0.25890  -0.12297
C          C       0.46825   0.15578   0.32553  -0.12429
C          C       0.84550   0.30991   0.27919  -0.11438
C          C       0.28900   0.45567   0.35082  -0.11855
C          C       0.54112   0.84033   0.27224  -0.12064
C          C       0.16209   0.69722   0.29184  -0.12453
C          C       0.80125   0.52570   0.29436   0.08012
C          C       0.48548   0.28545   0.31423   0.08174
C          C       0.71653   0.19535   0.28960   0.07426
C          C       0.19081   0.49125   0.29706   0.07746
C          C       0.50940   0.70470   0.30192   0.07381
C          C       0.29487   0.80696   0.26730   0.08157
C          C       0.50765   0.54594   0.77898   0.02211
C          C       0.44991   0.95926   0.72246   0.02839
C          C       0.03947   0.48657   0.76362   0.02636
C          C       0.50710   0.46536   0.75374   0.03205
C          C       0.53161   0.03862   0.73445   0.02972
C          C       0.96038   0.48892   0.72815   0.02818
C          C       0.46746   0.50628   0.77091   0.09900
C          C       0.48971   0.95820   0.72951   0.09387
C          C       0.04107   0.52887   0.73228   0.09510
C          C       0.54790   0.50557   0.75336   0.09087
C          C       0.49214   0.04006   0.72433   0.09694
C          C       0.95953   0.44701   0.74921   0.09540
C          C       0.46858   0.46752   0.76002  -0.17274
C          C       0.52885   0.99764   0.73687  -0.17414
C          C       0.00178   0.52863   0.71530  -0.16955
C          C       0.54668   0.54405   0.76734  -0.17256
C          C       0.45282   0.00053   0.71864  -0.17246
C          C       0.99884   0.44703   0.77077  -0.17621
C          C       0.51025   0.58821   0.79358   0.07182
C          C       0.40615   0.91849   0.72942   0.07375
C          C       0.07955   0.48452   0.78458   0.07419
C          C       0.50323   0.42148   0.75718   0.07583
C          C       0.57456   0.07745   0.74408   0.07855
C          C       0.92022   0.49246   0.73116   0.07295
C          C       0.42547   0.50236   0.77170  -0.09576
C          C       0.49219   0.91924   0.73466  -0.09537
C          C       0.08005   0.57064   0.72655  -0.09399
C          C       0.58874   0.50681   0.74602  -0.09877
C          C       0.49104   0.07943   0.72672  -0.09554
C          C       0.92124   0.40561   0.74756  -0.09531
C          C       0.54490   0.61968   0.85419  -0.14069
C          C       0.36483   0.91136   0.81607  -0.13645
C          C       0.07552   0.44866   0.92286  -0.13983
C          C       0.46539   0.37923   0.87783  -0.13037
C          C       0.60014   0.06757   0.84836  -0.13800
C          C       0.91875   0.52545   0.79742  -0.13540
C          C       0.54908   0.66079   0.85875  -0.12689
C          C       0.32318   0.87220   0.83093  -0.13076
C          C       0.11339   0.44657   0.94028  -0.12757
C          C       0.46160   0.33731   0.89287  -0.12573
C          C       0.64116   0.10308   0.85855  -0.12522
C          C       0.88100   0.52882   0.81332  -0.12217
C          C       0.51866   0.67238   0.80224   0.04691
C          C       0.32119   0.83844   0.76109   0.05315
C          C       0.15619   0.47973   0.81682   0.04776
C          C       0.49485   0.33604   0.78439   0.05198
C          C       0.65886   0.14982   0.76034   0.04524
C          C       0.84290   0.49941   0.76256   0.04832
C          C       0.48351   0.64080   0.74552  -0.11516
C          C       0.36224   0.84556   0.67333  -0.09495
C          C       0.16026   0.51564   0.67851  -0.10900
C          C       0.53201   0.37807   0.65955  -0.09756
C          C       0.63379   0.15987   0.65358  -0.10870
C          C       0.84440   0.46706   0.69203  -0.10202
C          C       0.47956   0.60002   0.74039  -0.11833
C          C       0.40371   0.88487   0.65693  -0.12744
C          C       0.12267   0.51811   0.66301  -0.11745
C          C       0.53637   0.42004   0.64808  -0.12657
C          C       0.59226   0.12440   0.64674  -0.11979
C          C       0.88223   0.46382   0.67643  -0.12948
C          C       0.62298   0.50577   0.74318  -0.09329
C          C       0.49154   0.11414   0.72998  -0.09818
C          C       0.88861   0.37055   0.73800  -0.09391
C          C       0.38846   0.49630   0.76398  -0.08552
C          C       0.49693   0.88703   0.73738  -0.09328
C          C       0.11302   0.60701   0.72455  -0.09807
C          C       0.66077   0.50144   0.73783   0.11718
C          C       0.49607   0.15655   0.72462   0.11900
C          C       0.84837   0.33379   0.72113   0.12017
C          C       0.34821   0.49477   0.74807   0.11337
C          C       0.49904   0.84829   0.73425   0.11686
C          C       0.15271   0.64776   0.72137   0.11746
C          C       0.65839   0.46288   0.70355  -0.11507
C          C       0.53530   0.19919   0.61129  -0.11610
C          C       0.82036   0.34382   0.63182  -0.11906
C          C       0.35056   0.53076   0.61497  -0.11868
C          C       0.46383   0.81165   0.69416  -0.11808
C          C       0.19598   0.65643   0.65155  -0.11649
C          C       0.69543   0.45843   0.69527  -0.15078
C          C       0.53975   0.24105   0.60235  -0.15093
C          C       0.78001   0.30837   0.61806  -0.14746
C          C       0.31144   0.53041   0.60214  -0.15052
C          C       0.46564   0.77348   0.69014  -0.14996
C          C       0.23520   0.69698   0.64409  -0.14993
C          C       0.73588   0.49161   0.72378   0.20002
C          C       0.50571   0.24225   0.70648   0.20070
C          C       0.76544   0.26145   0.69450   0.21142
C          C       0.26884   0.49481   0.72261   0.20845
C          C       0.50182   0.76967   0.73023   0.20839
C          C       0.23300   0.72969   0.71000   0.20269
C          C       0.73842   0.53034   0.75617  -0.17642
C          C       0.46630   0.19957   0.81822  -0.17949
C          C       0.79380   0.25134   0.78025  -0.17900
C          C       0.26633   0.45815   0.85181  -0.17761
C          C       0.53735   0.80664   0.76702  -0.17205
C          C       0.18963   0.72073   0.78093  -0.17823
C          C       0.70154   0.53510   0.76363  -0.12418
C          C       0.46165   0.15763   0.82758  -0.12181
C          C       0.83438   0.28672   0.79362  -0.11903
C          C       0.30526   0.45816   0.86486  -0.12107
C          C       0.53602   0.84518   0.76927  -0.11927
C          C       0.15029   0.68070   0.78583  -0.12009
C          C       0.80352   0.50325   0.78603   0.07562
C          C       0.48947   0.29147   0.80311   0.08160
C          C       0.70150   0.18578   0.77855   0.07411
C          C       0.19548   0.47681   0.83401   0.07783
C          C       0.52199   0.71492   0.80825   0.07516
C          C       0.27754   0.79762   0.77728   0.07562
N          N       0.76903   0.50198   0.22720  -0.30995
N          N       0.50962   0.28230   0.19048  -0.30514
N          N       0.73431   0.23756   0.18506  -0.29502
N          N       0.22750   0.50993   0.17080  -0.29650
N          N       0.49273   0.72487   0.20893  -0.29205
N          N       0.28892   0.77631   0.19276  -0.30374
N          N       0.77179   0.48477   0.70884  -0.29585
N          N       0.51348   0.28632   0.68673  -0.30510
N          N       0.72422   0.22848   0.67231  -0.29316
N          N       0.23155   0.49819   0.70156  -0.30194
N          N       0.49996   0.72952   0.72397  -0.29906
N          N       0.27485   0.76875   0.69742  -0.30483

