data_crystal

_audit_creation_method 'AiiDA-DDEC plugin'

_cell_length_a        28.33051
_cell_length_b        28.75403
_cell_length_c         8.05405

_cell_angle_alpha     87.65540
_cell_angle_beta     111.99444
_cell_angle_gamma     90.58854

_symmetry_space_group_name_Hall 'P 1'
_symmetry_space_group_name_H-M  'P 1'

loop_
_symmetry_equiv_pos_as_xyz
 'x,y,z'

loop_
_atom_site_label
_atom_site_type_symbol
_atom_site_fract_x
_atom_site_fract_y
_atom_site_fract_z
_atom_site_charge
H          H       0.60821   0.44814   0.17214   0.11407
H          H       0.39374   0.74561   0.24283   0.10984
H          H       0.32463   0.79691   0.24615   0.11155
H          H       0.25926   0.68200   0.44256   0.11925
H          H       0.32864   0.62983   0.43700   0.11867
H          H       0.24672   0.81662   0.13761   0.06546
H          H       0.12918   0.96978   0.28018   0.10613
H          H       0.92940   0.17750   0.19724   0.10701
H          H       0.85295   0.22243   0.17380   0.11467
H          H       0.80327   0.10710   0.42199   0.10468
H          H       0.87943   0.06246   0.44776   0.09883
H          H       0.39669   0.55059   0.32227   0.11166
H          H       0.60867   0.25354   0.23584   0.11115
H          H       0.67845   0.20180   0.23930   0.11152
H          H       0.75008   0.31767   0.07545   0.12056
H          H       0.68011   0.37016   0.07382   0.11650
H          H       0.75818   0.18273   0.37043   0.06676
H          H       0.87654   0.02944   0.22596   0.10587
H          H       0.07761   0.82300   0.32259   0.10763
H          H       0.15396   0.77753   0.34667   0.11567
H          H       0.20229   0.89103   0.08578   0.10282
H          H       0.12613   0.93603   0.05828   0.09982
H          H       0.38911   0.46447   0.32406   0.11420
H          H       0.61316   0.71522   0.43824   0.11308
H          H       0.68408   0.76250   0.41994   0.10928
H          H       0.79518   0.67120   0.30555   0.12263
H          H       0.72434   0.62070   0.31934   0.11647
H          H       0.74971   0.78775   0.39461   0.06158
H          H       0.87794   0.94939   0.14151   0.10204
H          H       0.04634   0.17876   0.19889   0.10675
H          H       0.11817   0.23385   0.24277   0.11472
H          H       0.21175   0.14360   0.17858   0.10344
H          H       0.13982   0.08890   0.12941   0.10410
H          H       0.61561   0.53421   0.16868   0.11404
H          H       0.38291   0.28193   0.02607   0.11275
H          H       0.31225   0.23321   0.04322   0.10882
H          H       0.20824   0.33339   0.19068   0.12332
H          H       0.28075   0.38104   0.17483   0.11524
H          H       0.24733   0.21393   0.10340   0.06395
H          H       0.12753   0.05006   0.36081   0.10217
H          H       0.95580   0.82144   0.30193   0.10795
H          H       0.88221   0.76809   0.25282   0.11388
H          H       0.78558   0.85782   0.32120   0.10275
H          H       0.85724   0.91272   0.37382   0.10630
H          H       0.51520   0.65959   0.23879   0.12276
H          H       0.48970   0.33906   0.25397   0.12408
H          H       0.00080   0.15190   0.40660   0.10505
H          H       0.00450   0.84741   0.09701   0.10666
H          H       0.60343   0.45017   0.67350   0.11165
H          H       0.39287   0.74728   0.78442   0.11315
H          H       0.32262   0.79784   0.78409   0.10905
H          H       0.24853   0.67905   0.91778   0.12070
H          H       0.31952   0.62777   0.91919   0.11823
H          H       0.24285   0.81602   0.64515   0.06683
H          H       0.12485   0.97104   0.77929   0.10571
H          H       0.92361   0.17769   0.68880   0.10751
H          H       0.84702   0.22237   0.66635   0.11496
H          H       0.80031   0.10832   0.92972   0.10275
H          H       0.87644   0.06372   0.95252   0.09851
H          H       0.39194   0.55230   0.82583   0.11205
H          H       0.60471   0.25436   0.74526   0.11039
H          H       0.67433   0.20258   0.74888   0.11210
H          H       0.74534   0.31799   0.57943   0.12046
H          H       0.67538   0.37054   0.57642   0.11635
H          H       0.75436   0.18320   0.87403   0.06650
H          H       0.87251   0.02984   0.73125   0.10608
H          H       0.07130   0.82340   0.81682   0.10628
H          H       0.14738   0.77722   0.84352   0.11520
H          H       0.19847   0.89065   0.59042   0.10618
H          H       0.12309   0.93673   0.56384   0.10041
H          H       0.38399   0.46616   0.82403   0.11301
H          H       0.61583   0.71706   0.95367   0.11263
H          H       0.68602   0.76675   0.93915   0.11033
H          H       0.79109   0.67142   0.81751   0.12241
H          H       0.71929   0.62291   0.83381   0.11787
H          H       0.75267   0.78723   0.88934   0.06510
H          H       0.87407   0.94990   0.64745   0.10223
H          H       0.04393   0.17908   0.69923   0.10752
H          H       0.11711   0.23242   0.74177   0.11361
H          H       0.21515   0.14477   0.67421   0.10242
H          H       0.14416   0.08921   0.62705   0.10616
H          H       0.60990   0.53620   0.66564   0.11445
H          H       0.38603   0.28203   0.53863   0.11285
H          H       0.31440   0.23505   0.55363   0.10888
H          H       0.20390   0.33300   0.69950   0.12210
H          H       0.27516   0.38263   0.68383   0.11597
H          H       0.24925   0.21571   0.60143   0.06219
H          H       0.12285   0.05142   0.85804   0.10271
H          H       0.95343   0.82129   0.79822   0.11039
H          H       0.88070   0.76702   0.75056   0.11423
H          H       0.78939   0.85822   0.81634   0.10287
H          H       0.86193   0.91207   0.86947   0.10638
H          H       0.51020   0.66142   0.74280   0.12399
H          H       0.48505   0.34089   0.75881   0.12306
H          H       0.99679   0.15310   0.90526   0.10576
H          H       0.00030   0.84844   0.59756   0.10562
C          C       0.47091   0.60112   0.26971   0.08547
C          C       0.46621   0.55157   0.27082   0.03213
C          C       0.57991   0.46976   0.19361  -0.12582
C          C       0.43441   0.62955   0.29659  -0.09244
C          C       0.40281   0.65450   0.31954  -0.09944
C          C       0.36519   0.68386   0.33454   0.12123
C          C       0.36405   0.73178   0.28545  -0.11775
C          C       0.32490   0.76028   0.28586  -0.17714
C          C       0.28548   0.74218   0.33596   0.20691
C          C       0.28843   0.69511   0.39568  -0.15152
C          C       0.32704   0.66622   0.39276  -0.12419
C          C       0.22825   0.80450   0.22970   0.06906
C          C       0.95590   0.09047   0.32679   0.02965
C          C       0.95641   0.04313   0.28127   0.03139
C          C       0.09371   0.98451   0.27683  -0.13003
C          C       0.90994   0.11571   0.32014   0.07400
C          C       0.90206   0.16195   0.24804  -0.13042
C          C       0.85906   0.18719   0.23254  -0.10848
C          C       0.82200   0.16758   0.29099   0.04772
C          C       0.83025   0.12217   0.36816  -0.12781
C          C       0.87315   0.09671   0.38125  -0.13963
C          C       0.53368   0.39766   0.22171   0.08407
C          C       0.53822   0.44721   0.22018   0.03086
C          C       0.42469   0.52899   0.29862  -0.12095
C          C       0.57041   0.36955   0.19506  -0.09232
C          C       0.60255   0.34503   0.17337  -0.10055
C          C       0.64061   0.31574   0.16153   0.12036
C          C       0.64013   0.26749   0.20333  -0.11674
C          C       0.67954   0.23877   0.20689  -0.17624
C          C       0.72087   0.25707   0.16861   0.20606
C          C       0.71953   0.30447   0.11476  -0.15298
C          C       0.68060   0.33351   0.11350  -0.12154
C          C       0.77746   0.19445   0.28036   0.06652
C          C       0.04962   0.90866   0.17960   0.02759
C          C       0.04918   0.95611   0.22420   0.03209
C          C       0.91191   0.01475   0.22849  -0.12963
C          C       0.09591   0.88335   0.18962   0.07211
C          C       0.10438   0.83770   0.26742  -0.12932
C          C       0.14732   0.81226   0.28345  -0.11029
C          C       0.18384   0.83126   0.22110   0.04742
C          C       0.17541   0.87637   0.14099  -0.12688
C          C       0.13248   0.90197   0.12658  -0.13874
C          C       0.54989   0.59534   0.21377   0.08289
C          C       0.54663   0.54570   0.21759   0.03302
C          C       0.42056   0.48141   0.29972  -0.12001
C          C       0.59040   0.61829   0.18345  -0.08768
C          C       0.62484   0.63941   0.15711  -0.10277
C          C       0.66507   0.66542   0.13703   0.12269
C          C       0.65519   0.70700   0.02944  -0.11895
C          C       0.69477   0.73465   0.02124  -0.18005
C          C       0.74594   0.72184   0.12055   0.19924
C          C       0.75569   0.68027   0.22688  -0.15324
C          C       0.71627   0.65221   0.23385  -0.11956
C          C       0.78679   0.78024   0.01063   0.07323
C          C       0.04656   0.09772   0.37127   0.02743
C          C       0.04797   0.05060   0.32689   0.03272
C          C       0.91254   0.96987   0.18007  -0.13420
C          C       0.09034   0.12958   0.40713   0.07704
C          C       0.08335   0.17154   0.30377  -0.13359
C          C       0.12312   0.20239   0.32750  -0.09540
C          C       0.17148   0.19283   0.46021   0.05258
C          C       0.17509   0.15090   0.07144  -0.12670
C          C       0.13475   0.12014   0.04368  -0.13491
C          C       0.45468   0.40326   0.27767   0.08348
C          C       0.45776   0.45295   0.27325   0.03167
C          C       0.58403   0.51730   0.19223  -0.12133
C          C       0.41415   0.38030   0.30814  -0.08693
C          C       0.37946   0.35960   0.33447  -0.10330
C          C       0.33853   0.33480   0.35519   0.12490
C          C       0.34708   0.29338   0.46330  -0.11922
C          C       0.30661   0.26727   0.47238  -0.18135
C          C       0.25583   0.28143   0.37401   0.19952
C          C       0.24740   0.32302   0.26825  -0.15171
C          C       0.28775   0.34950   0.25985  -0.12130
C          C       0.21478   0.22308   0.48171   0.07496
C          C       0.95857   0.90198   0.12993   0.02741
C          C       0.95748   0.94897   0.17603   0.03342
C          C       0.09294   0.02957   0.32349  -0.13625
C          C       0.91398   0.87090   0.09106   0.07592
C          C       0.91932   0.82920   0.19481  -0.13438
C          C       0.87852   0.79943   0.16851  -0.09732
C          C       0.83076   0.80976   0.03327   0.05386
C          C       0.82223   0.85002   0.42776  -0.12467
C          C       0.86246   0.88103   0.45743  -0.13684
C          C       0.50431   0.52414   0.24466  -0.00094
C          C       0.51224   0.62189   0.24006  -0.16056
C          C       0.49998   0.47455   0.24562   0.00244
C          C       0.49246   0.37678   0.25181  -0.16132
C          C       0.00250   0.02327   0.27878   0.00505
C          C       0.00099   0.11603   0.36940  -0.18580
C          C       0.00304   0.97620   0.22541   0.00342
C          C       0.00430   0.88329   0.13435  -0.18453
C          C       0.46654   0.60284   0.77673   0.08472
C          C       0.46180   0.55330   0.77646   0.03157
C          C       0.57514   0.47162   0.69584  -0.12044
C          C       0.43033   0.63084   0.80721  -0.09216
C          C       0.39860   0.65513   0.83245  -0.10012
C          C       0.36038   0.68379   0.84661   0.11997
C          C       0.36102   0.73241   0.81224  -0.11856
C          C       0.32119   0.76050   0.80943  -0.17202
C          C       0.27915   0.74111   0.84050   0.20495
C          C       0.28001   0.69316   0.88571  -0.15326
C          C       0.31950   0.66485   0.88686  -0.12206
C          C       0.22297   0.80385   0.73276   0.06619
C          C       0.95176   0.09148   0.82741   0.02865
C          C       0.95225   0.04396   0.78350   0.03200
C          C       0.08942   0.98555   0.77687  -0.12969
C          C       0.90559   0.11664   0.81952   0.07198
C          C       0.89689   0.16245   0.74332  -0.12829
C          C       0.85384   0.18752   0.72866  -0.11095
C          C       0.81760   0.16817   0.79175   0.04713
C          C       0.82659   0.12311   0.87218  -0.12558
C          C       0.86948   0.09777   0.88430  -0.13893
C          C       0.52939   0.39927   0.72669   0.08642
C          C       0.53384   0.44888   0.72446   0.03157
C          C       0.42006   0.53073   0.80273  -0.12483
C          C       0.56609   0.37083   0.70062  -0.09073
C          C       0.59796   0.34599   0.67853  -0.10075
C          C       0.63590   0.31646   0.66616   0.12057
C          C       0.63579   0.26828   0.71030  -0.11795
C          C       0.67517   0.23944   0.71371  -0.17777
C          C       0.71613   0.25747   0.67247   0.20873
C          C       0.71470   0.30486   0.61826  -0.15355
C          C       0.67582   0.33399   0.61702  -0.12088
C          C       0.77303   0.19487   0.78217   0.06798
C          C       0.04546   0.90969   0.68053   0.02982
C          C       0.04500   0.95709   0.72533   0.03213
C          C       0.90786   0.01540   0.73250  -0.12987
C          C       0.09154   0.88409   0.69069   0.07425
C          C       0.09889   0.83808   0.76526  -0.12992
C          C       0.14156   0.81217   0.78207  -0.10739
C          C       0.17870   0.83098   0.72221   0.04636
C          C       0.17116   0.87627   0.64408  -0.12660
C          C       0.12870   0.90247   0.63020  -0.14166
C          C       0.54483   0.59734   0.71571   0.08487
C          C       0.54176   0.54764   0.71993   0.03220
C          C       0.41574   0.48319   0.80187  -0.12034
C          C       0.58525   0.62031   0.68411  -0.08840
C          C       0.62008   0.64072   0.65755  -0.10218
C          C       0.66100   0.66560   0.63674   0.12595
C          C       0.65218   0.70540   0.51989  -0.12119
C          C       0.69234   0.73186   0.50995  -0.17851
C          C       0.74322   0.71990   0.61734   0.19841
C          C       0.75193   0.67995   0.73230  -0.15283
C          C       0.71190   0.65297   0.74108  -0.12293
C          C       0.78434   0.77914   0.51209   0.07522
C          C       0.04250   0.09848   0.87236   0.02763
C          C       0.04366   0.05142   0.82737   0.03401
C          C       0.90853   0.97054   0.68379  -0.13684
C          C       0.08682   0.12979   0.90916   0.07681
C          C       0.08076   0.17142   0.80453  -0.13543
C          C       0.12122   0.20139   0.82795  -0.09547
C          C       0.16921   0.19154   0.96241   0.05325
C          C       0.17822   0.15186   0.56824  -0.12372
C          C       0.13846   0.12047   0.54111  -0.13699
C          C       0.44996   0.40513   0.78019   0.08352
C          C       0.45317   0.45479   0.77639   0.03077
C          C       0.57885   0.51923   0.69251  -0.12001
C          C       0.40921   0.38217   0.80874  -0.08710
C          C       0.37436   0.36124   0.83287  -0.10373
C          C       0.33404   0.33558   0.85357   0.12438
C          C       0.34367   0.29316   0.95595  -0.11860
C          C       0.30393   0.26613   0.96624  -0.18037
C          C       0.25286   0.28039   0.87433   0.20197
C          C       0.24336   0.32276   0.77285  -0.15398
C          C       0.28299   0.35025   0.76419  -0.12101
C          C       0.21277   0.22146   0.98423   0.07464
C          C       0.95449   0.90280   0.63161   0.02729
C          C       0.95333   0.94974   0.67828   0.03223
C          C       0.08853   0.03063   0.82258  -0.13499
C          C       0.91034   0.87121   0.59195   0.07644
C          C       0.91662   0.82892   0.69285  -0.13669
C          C       0.87636   0.79854   0.66684  -0.09548
C          C       0.82817   0.80881   0.53422   0.05317
C          C       0.82567   0.85044   0.92487  -0.12537
C          C       0.86643   0.88082   0.95475  -0.13759
C          C       0.49981   0.52595   0.74916   0.00153
C          C       0.50742   0.62372   0.74437  -0.16227
C          C       0.49558   0.47631   0.74990   0.00103
C          C       0.48795   0.37858   0.75600  -0.16165
C          C       0.99825   0.02406   0.78030   0.00407
C          C       0.99689   0.11707   0.86935  -0.18508
C          C       0.99883   0.97703   0.72687   0.00438
C          C       0.00017   0.88430   0.63523  -0.18671
N          N       0.24343   0.76772   0.33428  -0.29720
N          N       0.76312   0.23122   0.17523  -0.29327
N          N       0.78854   0.74825   0.13062  -0.29873
N          N       0.21267   0.25571   0.36351  -0.29927
N          N       0.23669   0.76649   0.83474  -0.29320
N          N       0.75811   0.23150   0.67666  -0.29499
N          N       0.78634   0.74582   0.62775  -0.30277
N          N       0.21028   0.25426   0.86631  -0.29969

