data_crystal

_audit_creation_method 'AiiDA-DDEC plugin'

_cell_length_a        39.17235
_cell_length_b        39.04997
_cell_length_c         7.94281

_cell_angle_alpha     89.76540
_cell_angle_beta     89.91342
_cell_angle_gamma     120.14467

_symmetry_space_group_name_Hall 'P 1'
_symmetry_space_group_name_H-M  'P 1'

loop_
_symmetry_equiv_pos_as_xyz
 'x,y,z'

loop_
_atom_site_label
_atom_site_type_symbol
_atom_site_fract_x
_atom_site_fract_y
_atom_site_fract_z
_atom_site_charge
H          H       0.62094   0.61819   0.23289   0.11609
H          H       0.38235  -0.00023   0.22168   0.11443
H          H       0.00160   0.38175   0.22965   0.11489
H          H       0.38319   0.38344   0.28332   0.11416
H          H       0.61781   0.00031   0.26771   0.11530
H          H       0.00170   0.61786   0.25445   0.11369
H          H       0.51374   0.42207   0.08299   0.10647
H          H       0.57825   0.09131   0.06722   0.10615
H          H       0.91352   0.48748   0.03788   0.10359
H          H       0.49124   0.57895   0.44529   0.10540
H          H       0.42196   0.90912   0.42630   0.10733
H          H       0.09065   0.51238   0.43230   0.10534
H          H       0.57709   0.48483   0.07281   0.11498
H          H       0.51489   0.09033   0.05166   0.11300
H          H       0.91331   0.42443   0.03738   0.11426
H          H       0.42765   0.51630   0.45407   0.11502
H          H       0.48526   0.90990   0.43993   0.11348
H          H       0.08999   0.57515   0.44048   0.11442
H          H       0.61383   0.65225   0.48734   0.10694
H          H       0.35233   0.96340   0.47733   0.10873
H          H       0.03951   0.38800   0.47816   0.10899
H          H       0.38828   0.35024   0.04043   0.10896
H          H       0.64978   0.03869   0.01881   0.10953
H          H       0.96549   0.61601   0.02456   0.10745
H          H       0.62108   0.71638   0.03472   0.10410
H          H       0.28155   0.90672   0.01549   0.10241
H          H       0.09462   0.37906   0.02559   0.10363
H          H       0.37622   0.28400   0.47842   0.10204
H          H       0.71471   0.09555   0.46338   0.10374
H          H       0.89743   0.61232   0.44314   0.10157
H          H       0.51456   0.68084   0.23712   0.11337
H          H       0.31335   0.83193   0.23450   0.11271
H          H       0.16946   0.48522   0.23138   0.11409
H          H       0.48514   0.31628   0.27361   0.11399
H          H       0.68412   0.16884   0.26300   0.11324
H          H       0.83308   0.51277   0.22572   0.11350
H          H       0.51064   0.61634   0.18373   0.10561
H          H       0.37994   0.88947   0.17383   0.10643
H          H       0.11049   0.49213   0.17889   0.10761
H          H       0.49274   0.38230   0.32958   0.10787
H          H       0.61824   0.10990   0.31980   0.10681
H          H       0.89141   0.50478   0.27430   0.11021
H          H       0.33576   0.50097   0.24677   0.11653
H          H       0.49700   0.83249   0.25563   0.11739
H          H       0.16704   0.66553   0.28674   0.11600
H          H       0.67114   0.50288   0.28817   0.11719
H          H       0.50483   0.16766   0.19779   0.11747
H          H       0.83752   0.33565   0.23015   0.11559
H          H       0.27227   0.50097   0.22335   0.11834
H          H       0.49592   0.76816   0.23614   0.12107
H          H       0.23135   0.72929   0.27302   0.12277
H          H       0.73447   0.50231   0.29019   0.11942
H          H       0.50599   0.23185   0.22831   0.12184
H          H       0.77219   0.27327   0.25051   0.12165
H          H       0.21350   0.39241   0.50759   0.11004
H          H       0.60884   0.82021   0.47989   0.11214
H          H       0.17537   0.79087   0.47501   0.10985
H          H       0.78729   0.60545   0.96931   0.11086
H          H       0.38666   0.17712   0.04664   0.10883
H          H       0.82169   0.20941   0.01099   0.11159
H          H       0.27605   0.39195   0.53007   0.11112
H          H       0.61040   0.88424   0.49781   0.11320
H          H       0.11148   0.72767   0.48844   0.11235
H          H       0.72467   0.60567   0.96416   0.11114
H          H       0.38502   0.11309   0.02184   0.11181
H          H       0.88649   0.27099   0.99117   0.11322
H          H       0.40685   0.23961   0.99238   0.06868
H          H       0.75853   0.16996   0.96129   0.06715
H          H       0.83651   0.59806   0.98873   0.06712
H          H       0.58628   0.75774   0.53486   0.06732
H          H       0.24000   0.83395   0.53374   0.06634
H          H       0.17003   0.41048   0.52977   0.06545
H          H       0.61797   0.61642   0.73679   0.11483
H          H       0.38263   0.00218   0.72535   0.11392
H          H      -0.00077   0.38183   0.72574   0.11470
H          H       0.37932   0.38240   0.78899   0.11454
H          H       0.61615   0.99864   0.77268   0.11556
H          H       0.99912   0.61788   0.76187   0.11581
H          H       0.50896   0.42100   0.57640   0.10442
H          H       0.57738   0.08902   0.55636   0.10440
H          H       0.90975   0.48736   0.55490   0.10710
H          H       0.48807   0.57817   0.94638   0.10421
H          H       0.42125   0.91124   0.94313   0.10324
H          H       0.08979   0.51328   0.92354   0.10596
H          H       0.57244   0.48339   0.56630   0.11403
H          H       0.51473   0.08946   0.54395   0.11460
H          H       0.91035   0.42455   0.54491   0.11377
H          H       0.42469   0.51571   0.95861   0.11350
H          H       0.48341   0.91026   0.95131   0.11442
H          H       0.08950   0.57612   0.92875   0.11430
H          H       0.61449   0.65107   0.97585   0.10946
H          H       0.34766   0.96503   0.96274   0.10696
H          H       0.03628   0.38591   0.96802   0.10895
H          H       0.38303   0.34926   0.54214   0.10930
H          H       0.64953   0.03645   0.52515   0.10992
H          H       0.95822   0.60958   0.49893   0.10762
H          H       0.61691   0.71606   0.54558   0.10307
H          H       0.28655   0.90559   0.54315   0.10358
H          H       0.09864   0.38239   0.53817   0.10244
H          H       0.38100   0.28464   0.98346   0.10230
H          H       0.71491   0.09784   0.95729   0.10348
H          H       0.90740   0.62399   0.97742   0.10276
H          H       0.51530   0.68307   0.75396   0.11250
H          H       0.31658   0.83247   0.75957   0.11295
H          H       0.16767   0.48545   0.74103   0.11361
H          H       0.48149   0.31580   0.75959   0.11403
H          H       0.68237   0.16760   0.75328   0.11349
H          H       0.83169   0.51237   0.77170   0.11346
H          H       0.50747   0.61684   0.70218   0.10838
H          H       0.38271   0.89089   0.70508   0.10972
H          H       0.10940   0.49279   0.68647   0.10790
H          H       0.48887   0.38165   0.82070   0.10838
H          H       0.61615   0.10868   0.80773   0.10779
H          H       0.89219   0.50842   0.82088   0.10316
H          H       0.33563   0.50715   0.80640   0.11600
H          H       0.50069   0.83365   0.74374   0.11758
H          H       0.16461   0.66846   0.72491   0.11436
H          H       0.66175   0.49327   0.74354   0.11809
H          H       0.49824   0.16686   0.75190   0.11697
H          H       0.83469   0.33310   0.75496   0.11779
H          H       0.27218   0.50742   0.78340   0.12148
H          H       0.50170   0.77036   0.72377   0.12206
H          H       0.22913   0.73189   0.72098   0.11896
H          H       0.72450   0.49146   0.76055   0.12311
H          H       0.49709   0.22988   0.77636   0.12192
H          H       0.77032   0.26968   0.77320   0.11987
H          H       0.20825   0.38591   0.94638   0.10825
H          H       0.60897   0.82170   0.01109   0.11188
H          H       0.18025   0.78508   0.04128   0.11048
H          H       0.78760   0.60761   0.53748   0.10996
H          H       0.38926   0.17876   0.49228   0.11026
H          H       0.82017   0.21083   0.49532   0.11135
H          H       0.27117   0.38561   0.97281   0.11166
H          H       0.60861   0.88463   0.02776   0.11479
H          H       0.11634   0.72280   0.04427   0.11329
H          H       0.72557   0.60985   0.52354   0.11275
H          H       0.39001   0.11622   0.47026   0.11070
H          H       0.88391   0.27345   0.47703   0.11488
H          H       0.40388   0.23943   0.48029   0.06438
H          H       0.75887   0.16753   0.46885   0.06943
H          H       0.82559   0.58268   0.46448   0.06696
H          H       0.59246   0.76028   0.03271   0.06717
H          H       0.23462   0.83635   0.99220   0.06378
H          H       0.16666   0.40642   0.01782   0.06762
C          C       0.55932   0.59119   0.29699   0.02177
C          C       0.40963   0.96554   0.28210   0.02163
C          C       0.03564   0.44368   0.28688   0.02321
C          C       0.44494   0.41004   0.22484   0.02101
C          C       0.59052   0.03468   0.20871   0.02058
C          C       0.96774   0.55619   0.19071   0.02013
C          C       0.52294   0.55474   0.31396   0.03186
C          C       0.44596   0.96569   0.29686   0.03206
C          C       0.03523   0.47988   0.29827   0.02983
C          C       0.48157   0.44632   0.21053   0.03194
C          C       0.55414   0.03442   0.19411   0.03212
C          C       0.96818   0.51995   0.17776   0.03211
C          C       0.52061   0.51884   0.25794   0.00259
C          C       0.48168  -0.00029   0.24009   0.00316
C          C       0.00182   0.48161   0.23617   0.00356
C          C       0.48387   0.48225   0.26633   0.00250
C          C       0.51844   0.00029   0.25022   0.00307
C          C       0.00141   0.51805   0.24147   0.00325
C          C       0.55484   0.51921   0.19416   0.03172
C          C       0.48102   0.03338   0.17415   0.03058
C          C       0.96866   0.44711   0.16944   0.03003
C          C       0.44967   0.48202   0.32992   0.03156
C          C       0.51911   0.96660   0.31600   0.03130
C          C       0.03445   0.55236   0.31011   0.03285
C          C       0.59174   0.55540   0.19411   0.09197
C          C       0.44480   0.03372   0.17440   0.09316
C          C       0.96820   0.41037   0.17570   0.09333
C          C       0.41262   0.44602   0.32758   0.09245
C          C       0.55533   0.96621   0.31454   0.09222
C          C       0.03481   0.58905   0.30683   0.09084
C          C       0.59288   0.59061   0.24155  -0.17969
C          C       0.41000  -0.00039   0.22612  -0.17811
C          C       0.00190   0.40974   0.23146  -0.17936
C          C       0.41139   0.41091   0.27801  -0.17724
C          C       0.59014   0.00046   0.26333  -0.17867
C          C       0.00134   0.58986   0.24968  -0.17713
C          C       0.51596   0.44863   0.13683  -0.13086
C          C       0.55163   0.06637   0.11903  -0.13213
C          C       0.93723   0.48550   0.09933  -0.13194
C          C       0.48875   0.55242   0.38975  -0.13082
C          C       0.44849   0.93385   0.37279  -0.13088
C          C       0.06649   0.51432   0.37511  -0.12852
C          C       0.55120   0.48353   0.12997  -0.12173
C          C       0.51652   0.06594   0.10997  -0.12081
C          C       0.93721   0.45043   0.09707  -0.12147
C          C       0.45346   0.51760   0.39605  -0.12277
C          C       0.48359   0.93420   0.38108  -0.12124
C          C       0.06615   0.54918   0.38046  -0.12449
C          C       0.56184   0.62949   0.33274   0.07696
C          C       0.37102   0.93058   0.32322   0.07737
C          C       0.07092   0.44087   0.32693   0.07458
C          C       0.44120   0.37129   0.18749   0.07731
C          C       0.62893   0.07016   0.16982   0.07693
C          C       0.93277   0.55960   0.15114   0.07568
C          C       0.62705   0.55576   0.15357  -0.09649
C          C       0.44387   0.06828   0.13165  -0.09583
C          C       0.93401   0.37455   0.13352  -0.09736
C          C       0.37719   0.44549   0.36738  -0.09819
C          C       0.55594   0.93132   0.35565  -0.09755
C          C       0.06863   0.62470   0.35358  -0.09514
C          C       0.59231   0.65860   0.43094  -0.13739
C          C       0.34367   0.93462   0.42340  -0.14026
C          C       0.06796   0.40935   0.42417  -0.13820
C          C       0.40924   0.34269   0.09362  -0.13997
C          C       0.65728   0.06722   0.07220  -0.14034
C          C       0.93658   0.59340   0.06960  -0.13762
C          C       0.59399   0.69446   0.46377  -0.12318
C          C       0.30675   0.90212   0.46020  -0.12612
C          C       0.10118   0.40620   0.45757  -0.12600
C          C       0.40523   0.30581   0.06139  -0.12301
C          C       0.69381   0.10046   0.03755  -0.12275
C          C       0.90389   0.59782   0.04266  -0.12674
C          C       0.56601   0.70292   0.39421   0.04739
C          C       0.29562   0.86469   0.39313   0.04590
C          C       0.13819   0.43368   0.38917   0.04697
C          C       0.43269   0.29594   0.12501   0.04522
C          C       0.70369   0.13756   0.10470   0.04650
C          C       0.86615   0.56865   0.09773   0.05050
C          C       0.53594   0.67415   0.29266  -0.10724
C          C       0.32259   0.86076   0.28915  -0.10487
C          C       0.14103   0.46467   0.28774  -0.10540
C          C       0.46433   0.32422   0.22189  -0.10438
C          C       0.67587   0.14037   0.20709  -0.10599
C          C       0.86219   0.53486   0.18028  -0.10415
C          C       0.53376   0.63811   0.26409  -0.12866
C          C       0.35969   0.89296   0.25619  -0.12950
C          C       0.10816   0.46845   0.25931  -0.12983
C          C       0.46850   0.36108   0.25205  -0.12995
C          C       0.63910   0.10744   0.23748  -0.12992
C          C       0.89476   0.53048   0.20603  -0.12991
C          C       0.65795   0.55558   0.13317  -0.09953
C          C       0.44335   0.09911   0.11188  -0.10277
C          C       0.90365   0.34282   0.11331  -0.10202
C          C       0.34593   0.44506   0.38628  -0.09901
C          C       0.55546   0.89995   0.37471  -0.10107
C          C       0.09849   0.65657   0.37857  -0.10325
C          C       0.69344   0.55443   0.12633   0.12232
C          C       0.44471   0.13589   0.10899   0.12184
C          C       0.86661   0.30760   0.11022   0.12020
C          C       0.31041   0.44625   0.38892   0.12101
C          C       0.55371   0.86291   0.37887   0.11888
C          C       0.13488   0.69232   0.38835   0.12016
C          C       0.30904   0.47757   0.30543  -0.12424
C          C       0.52096   0.82938   0.30770  -0.12313
C          C       0.16935   0.69294   0.33080  -0.12040
C          C       0.69644   0.52478   0.21636  -0.12670
C          C       0.47929   0.17013   0.16349  -0.12379
C          C       0.83362   0.30800   0.18043  -0.12037
C          C       0.27379   0.47763   0.29195  -0.15151
C          C       0.52030   0.79361   0.29667  -0.15415
C          C       0.20497   0.72816   0.32336  -0.15132
C          C       0.73170   0.52452   0.21818  -0.14796
C          C       0.48003   0.20580   0.17969  -0.15161
C          C       0.79739   0.27345   0.19196  -0.15448
C          C       0.23864   0.44722   0.36424   0.20617
C          C       0.55158   0.78934   0.35988   0.20688
C          C       0.20808   0.76408   0.37566   0.20753
C          C       0.76530   0.55344   0.13097   0.20153
C          C       0.44699   0.20929   0.13646   0.20976
C          C       0.79218   0.23729   0.13104   0.20712
C          C       0.24015   0.41645   0.45129  -0.17306
C          C       0.58402   0.82261   0.43318  -0.17427
C          C       0.17388   0.76342   0.43669  -0.17454
C          C       0.76215   0.58280   0.03944  -0.17034
C          C       0.41278   0.17536   0.07765  -0.17435
C          C       0.82486   0.23701   0.05763  -0.17455
C          C       0.27528   0.41595   0.46361  -0.12156
C          C       0.58512   0.85869   0.44233  -0.11982
C          C       0.13792   0.72813   0.44299  -0.11958
C          C       0.72694   0.58322   0.03666  -0.12096
C          C       0.41162   0.13933   0.06453  -0.11850
C          C       0.86141   0.27150   0.04732  -0.12147
C          C       0.42870   0.25753   0.08856   0.06977
C          C       0.74205   0.17230   0.06859   0.07411
C          C       0.83205   0.57359   0.07227   0.06588
C          C       0.56815   0.74071   0.42719   0.07321
C          C       0.25706   0.83043   0.43180   0.07437
C          C       0.17285   0.43013   0.42431   0.07182
C          C       0.55644   0.59005   0.79983   0.02037
C          C       0.40897   0.96718   0.79111   0.02025
C          C       0.03362   0.44367   0.78471   0.02101
C          C       0.44074   0.40905   0.72428   0.02182
C          C       0.58939   0.03327   0.70834   0.02020
C          C       0.96547   0.55627   0.69796   0.02372
C          C       0.51978   0.55378   0.81620   0.03237
C          C       0.44512   0.96683   0.80575   0.03221
C          C       0.03369   0.48021   0.79428   0.03139
C          C       0.47743   0.44527   0.70938   0.03141
C          C       0.55317   0.03337   0.69298   0.03185
C          C       0.96601   0.52018   0.68261   0.03038
C          C       0.51703   0.51774   0.75882   0.00307
C          C       0.48090   0.00011   0.74465   0.00192
C          C       0.00022   0.48206   0.73340   0.00393
C          C       0.48021   0.48122   0.76825   0.00369
C          C       0.51738  -0.00000   0.75343   0.00415
C          C      -0.00020   0.51851   0.73995   0.00361
C          C       0.55096   0.51781   0.69311   0.03223
C          C       0.48067   0.03376   0.67538   0.03205
C          C       0.96665   0.44750   0.66920   0.03154
C          C       0.44628   0.48106   0.83443   0.03096
C          C       0.51773   0.96629   0.82117   0.03052
C          C       0.03317   0.55304   0.80503   0.03015
C          C       0.58812   0.55372   0.69421   0.09062
C          C       0.44488   0.03492   0.67683   0.09251
C          C       0.96599   0.41066   0.67428   0.09116
C          C       0.40919   0.44506   0.83421   0.09239
C          C       0.55371   0.96543   0.81995   0.09334
C          C       0.03330   0.58961   0.80517   0.09222
C          C       0.58972   0.58900   0.74396  -0.17729
C          C       0.40994   0.00138   0.73175  -0.17762
C          C      -0.00033   0.40987   0.72904  -0.17763
C          C       0.40752   0.40988   0.78241  -0.17947
C          C       0.58870  -0.00081   0.76685  -0.17740
C          C      -0.00078   0.59015   0.75424  -0.17930
C          C       0.51143   0.44749   0.63218  -0.13033
C          C       0.55090   0.06503   0.61366  -0.13079
C          C       0.93438   0.48559   0.60795  -0.13024
C          C       0.48570   0.55156   0.89250  -0.13152
C          C       0.44755   0.93518   0.88459  -0.13229
C          C       0.06538   0.51498   0.86768  -0.13102
C          C       0.54683   0.48220   0.62576  -0.12230
C          C       0.51614   0.06531   0.60587  -0.12223
C          C       0.93461   0.45066   0.60229  -0.12235
C          C       0.45035   0.51678   0.90020  -0.12240
C          C       0.48223   0.93466   0.89041  -0.12140
C          C       0.06530   0.54998   0.87130  -0.12065
C          C       0.56028   0.62888   0.83670   0.07497
C          C       0.37032   0.93232   0.83174   0.07625
C          C       0.06856   0.44028   0.82593   0.07827
C          C       0.43683   0.37046   0.68293   0.07512
C          C       0.62789   0.06841   0.66799   0.07638
C          C       0.92955   0.55841   0.66167   0.07694
C          C       0.62320   0.55374   0.65311  -0.09570
C          C       0.44449   0.06980   0.63245  -0.09819
C          C       0.93137   0.37492   0.63438  -0.09605
C          C       0.37412   0.44487   0.87604  -0.09584
C          C       0.55439   0.93074   0.86367  -0.09667
C          C       0.06773   0.62505   0.85010  -0.09652
C          C       0.59281   0.65806   0.92627  -0.13895
C          C       0.34085   0.93610   0.91662  -0.13700
C          C       0.06500   0.40773   0.91770  -0.14053
C          C       0.40455   0.34190   0.59045  -0.14025
C          C       0.65669   0.06518   0.57506  -0.14069
C          C       0.93057   0.58828   0.55905  -0.13756
C          C       0.59656   0.69486   0.95882  -0.12550
C          C       0.30366   0.90326   0.94636  -0.12698
C          C       0.09788   0.40388   0.94997  -0.12435
C          C       0.40078   0.30523   0.55477  -0.12679
C          C       0.69334   0.09838   0.54106  -0.12437
C          C       0.89633   0.58983   0.52797  -0.12207
C          C       0.56860   0.70428   0.89712   0.04871
C          C       0.29450   0.86539   0.89099   0.04739
C          C       0.13535   0.43198   0.88757   0.04792
C          C       0.42862   0.29551   0.61516   0.04794
C          C       0.70290   0.13572   0.60453   0.04761
C          C       0.86024   0.56241   0.60370   0.04662
C          C       0.53648   0.67546   0.80415  -0.10614
C          C       0.32391   0.86157   0.80536  -0.10355
C          C       0.13890   0.46418   0.79272  -0.10395
C          C       0.46048   0.32377   0.71089  -0.10825
C          C       0.67445   0.13887   0.70107  -0.10586
C          C       0.85936   0.53309   0.71024  -0.10594
C          C       0.53230   0.63854   0.77572  -0.12896
C          C       0.36085   0.89426   0.77624  -0.12850
C          C       0.10628   0.46830   0.76364  -0.13065
C          C       0.46457   0.36046   0.74341  -0.12620
C          C       0.63763   0.10599   0.73058  -0.12954
C          C       0.89321   0.53094   0.73678  -0.12842
C          C       0.65406   0.55335   0.63500  -0.10248
C          C       0.44355   0.10043   0.61261  -0.09735
C          C       0.90068   0.34334   0.61706  -0.09993
C          C       0.34322   0.44521   0.89219  -0.10154
C          C       0.55514   0.90005   0.88436  -0.09989
C          C       0.09873   0.65592   0.87460  -0.09895
C          C       0.68919   0.55153   0.63043   0.11794
C          C       0.44410   0.13694   0.61019   0.12187
C          C       0.86390   0.30772   0.61509   0.12003
C          C       0.30779   0.44636   0.89310   0.12275
C          C       0.55449   0.86354   0.88784   0.12249
C          C       0.13569   0.69125   0.88329   0.12142
C          C       0.30782   0.48103   0.84084  -0.12235
C          C       0.52384   0.83054   0.80446  -0.12580
C          C       0.16829   0.69398   0.79470  -0.12384
C          C       0.68924   0.51776   0.69524  -0.12404
C          C       0.47479   0.16987   0.69371  -0.12484
C          C       0.83113   0.30640   0.69626  -0.12470
C          C       0.27266   0.48123   0.82697  -0.15156
C          C       0.52435   0.79539   0.79329  -0.15325
C          C       0.20412   0.72920   0.79180  -0.14896
C          C       0.72401   0.51666   0.70440  -0.15450
C          C       0.47423   0.20496   0.70708  -0.15196
C          C       0.79534   0.27126   0.70637  -0.15040
C          C       0.23624   0.44737   0.86752   0.21001
C          C       0.55464   0.79116   0.86816   0.20330
C          C       0.20923   0.76306   0.87682   0.20446
C          C       0.76000   0.54855   0.64520   0.20807
C          C       0.44376   0.20926   0.63444   0.20496
C          C       0.79036   0.23620   0.63340   0.20303
C          C       0.23615   0.41280   0.92051  -0.17374
C          C       0.58499   0.82393   0.95343  -0.17105
C          C       0.17700   0.75996   0.96957  -0.17131
C          C       0.75999   0.58219   0.57951  -0.17486
C          C       0.41344   0.17661   0.54837  -0.17220
C          C       0.82297   0.23754   0.55097  -0.17094
C          C       0.27128   0.41238   0.93369  -0.11779
C          C       0.58496   0.85944   0.96289  -0.12318
C          C       0.14095   0.72486   0.97226  -0.12352
C          C       0.72530   0.58367   0.57245  -0.11841
C          C       0.41361   0.14121   0.53625  -0.12104
C          C       0.85899   0.27263   0.54149  -0.12299
C          C       0.42492   0.25712   0.57945   0.07139
C          C       0.74145   0.17042   0.57082   0.06803
C          C       0.82459   0.56448   0.57259   0.07622
C          C       0.57240   0.74283   0.93033   0.07142
C          C       0.25540   0.83103   0.91921   0.06670
C          C       0.16987   0.42815   0.92121   0.06975
N          N       0.45056   0.24620   0.16469  -0.29857
N          N       0.75495   0.20402   0.15793  -0.30035
N          N       0.79902   0.55010   0.14761  -0.30384
N          N       0.54883   0.75258   0.33498  -0.29977
N          N       0.24492   0.79775   0.35046  -0.29515
N          N       0.20481   0.44990   0.33637  -0.29847
N          N       0.44612   0.24576   0.66104  -0.29916
N          N       0.75331   0.20243   0.65734  -0.30090
N          N       0.79365   0.54529   0.66706  -0.29698
N          N       0.55221   0.75455   0.84330  -0.30266
N          N       0.24647   0.79687   0.85772  -0.30102
N          N       0.20268   0.45045   0.84217  -0.29792

