data_crystal

_audit_creation_method 'AiiDA-DDEC plugin'

_cell_length_a        44.44430
_cell_length_b        44.52384
_cell_length_c         8.01484

_cell_angle_alpha     71.35020
_cell_angle_beta     86.43690
_cell_angle_gamma     120.12197

_symmetry_space_group_name_Hall 'P 1'
_symmetry_space_group_name_H-M  'P 1'

loop_
_symmetry_equiv_pos_as_xyz
 'x,y,z'

loop_
_atom_site_label
_atom_site_type_symbol
_atom_site_fract_x
_atom_site_fract_y
_atom_site_fract_z
_atom_site_charge
H          H       0.69743   0.39768   0.23596   0.09940
H          H       0.60322   0.29866   0.23232   0.10361
H          H       0.70245   0.30454   0.22903   0.09906
H          H       0.30676   0.60231   0.25121   0.10147
H          H       0.39913   0.70201   0.25292   0.10022
H          H       0.29900   0.69458   0.25615   0.10227
H          H       0.75442   0.42936   0.06190   0.10720
H          H       0.58070   0.32753   0.16938   0.10607
H          H       0.68021   0.26825   0.07756   0.09955
H          H       0.26152   0.58315   0.17230   0.10736
H          H       0.42255   0.68526   0.04193   0.10250
H          H       0.33174   0.75322   0.11789   0.10545
H          H       0.81737   0.46496   0.08709   0.12125
H          H       0.54651   0.35705   0.17136   0.12141
H          H       0.65018   0.20206   0.09962   0.12158
H          H       0.19691   0.54666   0.18229   0.11968
H          H       0.45961   0.65809   0.03607   0.12169
H          H       0.35971   0.81769   0.11278   0.12180
H          H       0.80298   0.35965   0.42893   0.10811
H          H       0.63305   0.44410   0.28788   0.10587
H          H       0.55092   0.17346   0.41633   0.10164
H          H       0.18339   0.62536   0.32430   0.10730
H          H       0.37244   0.55070   0.44326   0.10167
H          H       0.43716   0.80496   0.36774   0.10680
H          H       0.73987   0.32435   0.40970   0.09875
H          H       0.66640   0.41455   0.29356   0.10517
H          H       0.58100   0.23846   0.40266   0.10278
H          H       0.24626   0.66012   0.32442   0.10455
H          H       0.33592   0.57817   0.45617   0.10465
H          H       0.40879   0.74054   0.37900   0.09969
H          H       0.86377   0.40003   0.22405   0.07855
H          H       0.59817   0.46057   0.30739   0.07716
H          H       0.53162   0.13542   0.27125   0.07267
H          H       0.13166   0.59132   0.32758   0.07343
H          H       0.40145   0.54033   0.19883   0.07835
H          H       0.46639   0.86602   0.23605   0.07467
H          H       0.92919   0.41505   0.20682   0.13417
H          H       0.58364   0.51008   0.31248   0.13305
H          H       0.47975   0.06961   0.27289   0.12886
H          H       0.06808   0.57716   0.33342   0.13490
H          H       0.41680   0.49076   0.17875   0.13458
H          H       0.51434   0.92850   0.25829   0.12990
H          H       0.99581   0.54697   0.33100   0.12856
H          H       0.44809   0.44931   0.18245   0.12882
H          H       0.55377  -0.00042   0.27315   0.12545
H          H       0.00222   0.44630   0.20026   0.12938
H          H       0.55303   0.55209   0.30099   0.13123
H          H       0.43941   0.99760   0.26111   0.12399
H          H       0.69701   0.39888   0.72968   0.10075
H          H       0.60334   0.29825   0.73514   0.10217
H          H       0.70373   0.30634   0.73000   0.09989
H          H       0.30560   0.60140   0.75453   0.10120
H          H       0.39846   0.70141   0.75239   0.09913
H          H       0.29871   0.69463   0.74979   0.10355
H          H       0.75391   0.43079   0.55032   0.10409
H          H       0.58002   0.32710   0.67292   0.10896
H          H       0.68259   0.27026   0.57880   0.09929
H          H       0.26136   0.58523   0.65433   0.10417
H          H       0.42323   0.68514   0.55413   0.10340
H          H       0.33149   0.75339   0.61481   0.10486
H          H       0.81684   0.46797   0.57306   0.12205
H          H       0.54577   0.35652   0.67555   0.12165
H          H       0.65399   0.20431   0.59754   0.12083
H          H       0.19642   0.54877   0.66744   0.11931
H          H       0.45956   0.65741   0.54846   0.12179
H          H       0.35981   0.81786   0.60838   0.12152
H          H       0.80331   0.36472   0.93774   0.10693
H          H       0.63305   0.44447   0.78461   0.10598
H          H       0.55337   0.17327   0.91293   0.10250
H          H       0.18221   0.62294   0.84906   0.10910
H          H       0.36963   0.54869   0.93302   0.10247
H          H       0.43673   0.80438   0.86660   0.10422
H          H       0.74037   0.32787   0.91897   0.09986
H          H       0.66625   0.41496   0.79022   0.10536
H          H       0.58218   0.23821   0.90098   0.10514
H          H       0.24550   0.65772   0.84504   0.10082
H          H       0.33394   0.57668   0.94620   0.10425
H          H       0.40841   0.74028   0.87607   0.09923
H          H       0.86301   0.40334   0.73147   0.07890
H          H       0.59901   0.46176   0.79781   0.07722
H          H       0.53562   0.13585   0.76056   0.07051
H          H       0.13395   0.59718   0.79695   0.07520
H          H       0.39909   0.53807   0.70317   0.07476
H          H       0.46617   0.86500   0.73672   0.07405
H          H       0.92765   0.41694   0.72325   0.13655
H          H       0.58406   0.51162   0.79902   0.13365
H          H       0.48449   0.07115   0.76335   0.12953
H          H       0.06940   0.58198   0.81877   0.13359
H          H       0.41470   0.48771   0.68570   0.13254
H          H       0.51479   0.92662   0.76200   0.12881
H          H       0.99649   0.55138   0.82427   0.12996
H          H       0.44660   0.44686   0.69191   0.12985
H          H       0.55566   0.99789   0.77867   0.12461
H          H       0.00017   0.44687   0.72257   0.13140
H          H       0.55257   0.55305   0.78614   0.12982
H          H       0.44326  -0.00049   0.75428   0.12497
C          C       0.70423   0.35368   0.23034   0.07824
C          C       0.64755   0.35079   0.23136   0.07377
C          C       0.65070   0.29732   0.23039   0.08071
C          C       0.29773   0.64574   0.25279   0.07515
C          C       0.35492   0.65018   0.25420   0.07576
C          C       0.35086   0.70287   0.25493   0.08057
C          C       0.68413   0.36991   0.23108  -0.18066
C          C       0.63142   0.31435   0.23190  -0.18277
C          C       0.68720   0.31745   0.22905  -0.18269
C          C       0.31852   0.63012   0.25458  -0.18423
C          C       0.37082   0.68647   0.25406  -0.18434
C          C       0.31447   0.68198   0.25493  -0.17910
C          C       0.74230   0.37425   0.23558   0.05845
C          C       0.62662   0.36823   0.23253   0.05918
C          C       0.63273   0.25865   0.23541   0.05845
C          C       0.25954   0.62467   0.24906   0.06141
C          C       0.37646   0.63363   0.24901   0.05549
C          C       0.36787   0.74150   0.25008   0.05996
C          C       0.76481   0.41412   0.14508  -0.12530
C          C       0.59223   0.35254   0.20012  -0.12914
C          C       0.65198   0.24744   0.15378  -0.12568
C          C       0.24447   0.59209   0.21086  -0.13273
C          C       0.41168   0.65590   0.13214  -0.12795
C          C       0.35434   0.76400   0.17664  -0.12351
C          C       0.80003   0.43415   0.15716  -0.15029
C          C       0.57276   0.36912   0.19948  -0.14510
C          C       0.63543   0.21058   0.16491  -0.14656
C          C       0.20817   0.57144   0.21506  -0.13925
C          C       0.43247   0.64093   0.12723  -0.15711
C          C       0.37014   0.80040   0.17107  -0.14576
C          C       0.81461   0.41479   0.25594   0.20738
C          C       0.58662   0.40243   0.23052   0.19449
C          C       0.59852   0.18344   0.25573   0.20658
C          C       0.18510   0.58263   0.25564   0.19964
C          C       0.41828   0.60253   0.23636   0.20897
C          C       0.40080   0.81644   0.23519   0.19835
C          C       0.79250   0.37482   0.34562  -0.17999
C          C       0.62120   0.41856   0.26144  -0.16938
C          C       0.57905   0.19440   0.33840  -0.18335
C          C       0.20011   0.61566   0.29061  -0.16666
C          C       0.38304   0.58002   0.35359  -0.18569
C          C       0.41478   0.79426   0.30735  -0.17597
C          C       0.75695   0.35510   0.33541  -0.12566
C          C       0.64040   0.40170   0.26323  -0.12373
C          C       0.59598   0.23117   0.32943  -0.11739
C          C       0.23625   0.63583   0.28851  -0.12246
C          C       0.36266   0.59550   0.36042  -0.12212
C          C       0.39850   0.75764   0.31469  -0.12750
C          C       0.87171   0.42548   0.25007   0.06003
C          C       0.57339   0.44532   0.26751   0.06706
C          C       0.55011   0.12583   0.27085   0.05826
C          C       0.12577   0.56791   0.28749   0.05774
C          C       0.42845   0.55697   0.21736   0.06877
C          C       0.44639   0.87362   0.24009   0.06634
C          C       0.90832   0.44698   0.25951  -0.01877
C          C       0.55071   0.45965   0.26125  -0.00835
C          C       0.53513   0.08842   0.27596   0.00053
C          C       0.08935   0.54577   0.27823  -0.01337
C          C       0.45056   0.54189   0.22298  -0.01510
C          C       0.45917   0.90954   0.24946   0.00355
C          C       0.96719   0.49569   0.28239   0.00082
C          C       0.50103   0.47035   0.23094  -0.00213
C          C       0.52754   0.02939   0.27342  -0.00054
C          C       0.03086   0.49753   0.24938  -0.00400
C          C       0.50025   0.53131   0.25050  -0.00186
C          C       0.46574   0.96786   0.25927   0.00025
C          C       0.96847   0.46652   0.24809   0.07497
C          C       0.53107   0.49948   0.26453   0.07264
C          C       0.49514   0.02926   0.27031   0.07907
C          C       0.02939   0.52644   0.28563   0.07764
C          C       0.46997   0.50191   0.21951   0.07039
C          C       0.49814   0.96803   0.26334   0.07883
C          C       0.93434   0.43919   0.23589  -0.20873
C          C       0.55871   0.49218   0.28342  -0.21658
C          C       0.50045   0.06338   0.27340  -0.21773
C          C       0.06314   0.55331   0.30225  -0.21535
C          C       0.44209   0.50898   0.20418  -0.21478
C          C       0.49337   0.93436   0.25760  -0.21366
C          C       0.99711   0.52537   0.30155  -0.18309
C          C       0.47065   0.47127   0.20908  -0.17883
C          C       0.52918   0.99924   0.27059  -0.18304
C          C       0.00089   0.46781   0.23048  -0.18191
C          C       0.53049   0.53022   0.27389  -0.18069
C          C       0.46399   0.99791   0.26369  -0.18600
C          C       0.70450   0.35513   0.72874   0.07810
C          C       0.64728   0.35097   0.73117   0.07257
C          C       0.65151   0.29803   0.73111   0.07963
C          C       0.29717   0.64538   0.75187   0.07689
C          C       0.35424   0.64964   0.75318   0.07436
C          C       0.35043   0.70267   0.75182   0.08257
C          C       0.68394   0.37085   0.72820  -0.18344
C          C       0.63160   0.31443   0.73328  -0.18086
C          C       0.68801   0.31877   0.72948  -0.18106
C          C       0.31773   0.62951   0.75481  -0.18236
C          C       0.37021   0.68602   0.75225  -0.18510
C          C       0.31409   0.68187   0.75115  -0.18006
C          C       0.74253   0.37660   0.73292   0.05852
C          C       0.62620   0.36819   0.73260   0.05996
C          C       0.63434   0.25945   0.73500   0.05869
C          C       0.25892   0.62444   0.74951   0.05901
C          C       0.37563   0.63290   0.74897   0.05886
C          C       0.36749   0.74133   0.74712   0.05791
C          C       0.76462   0.41638   0.63680  -0.12295
C          C       0.59166   0.35227   0.70220  -0.13042
C          C       0.65433   0.24896   0.65313  -0.12863
C          C       0.24399   0.59306   0.70199  -0.12980
C          C       0.41145   0.65528   0.63884  -0.12839
C          C       0.35410   0.76400   0.67377  -0.12337
C          C       0.79980   0.43727   0.64789  -0.15508
C          C       0.57218   0.36882   0.70188  -0.14472
C          C       0.63859   0.21225   0.66285  -0.14892
C          C       0.20760   0.57262   0.70720  -0.14217
C          C       0.43193   0.63998   0.63422  -0.15376
C          C       0.37006   0.80044   0.66803  -0.14471
C          C       0.81466   0.41885   0.75173   0.20732
C          C       0.58624   0.40235   0.73100   0.19498
C          C       0.60171   0.18446   0.75293   0.20790
C          C       0.18445   0.58305   0.75715   0.20118
C          C       0.41690   0.60108   0.73608   0.20902
C          C       0.40067   0.81632   0.73299   0.19786
C          C       0.79278   0.37904   0.84869  -0.17628
C          C       0.62100   0.41877   0.75949  -0.16939
C          C       0.58146   0.19473   0.83537  -0.17846
C          C       0.19932   0.61467   0.80330  -0.17213
C          C       0.38113   0.57846   0.84752  -0.18593
C          C       0.41440   0.79392   0.80557  -0.17315
C          C       0.75735   0.35844   0.83883  -0.12618
C          C       0.64014   0.40189   0.76133  -0.12368
C          C       0.59763   0.23139   0.82747  -0.12250
C          C       0.23550   0.63461   0.80028  -0.11909
C          C       0.36108   0.59429   0.85428  -0.12240
C          C       0.39808   0.75735   0.81217  -0.12645
C          C       0.87137   0.42939   0.75230   0.05854
C          C       0.57361   0.44583   0.76404   0.06654
C          C       0.55437   0.12650   0.76518   0.06396
C          C       0.12628   0.57118   0.77715   0.05293
C          C       0.42644   0.55502   0.71726   0.06764
C          C       0.44659   0.87318   0.73938   0.06424
C          C       0.90779   0.45043   0.76502  -0.01428
C          C       0.55077   0.45996   0.75848  -0.00746
C          C       0.53952   0.08895   0.77192   0.00326
C          C       0.08934   0.54872   0.77572  -0.01394
C          C       0.44861   0.54001   0.72126  -0.01280
C          C       0.46010   0.90924   0.74902   0.00592
C          C       0.96690   0.49889   0.78705   0.00043
C          C       0.50029   0.46944   0.73218  -0.00169
C          C       0.53057   0.02889   0.77483  -0.00023
C          C       0.02985   0.49935   0.76060  -0.00132
C          C       0.49904   0.53053   0.74470  -0.00057
C          C       0.46823   0.96826   0.75829  -0.00034
C          C       0.96745   0.46876   0.76010   0.07733
C          C       0.53068   0.49958   0.75858   0.07273
C          C       0.49870   0.02971   0.76867   0.07875
C          C       0.02927   0.52950   0.78751   0.07615
C          C       0.46849   0.50028   0.72009   0.06875
C          C       0.50008   0.96739   0.76509   0.07931
C          C       0.93324   0.44163   0.74806  -0.21443
C          C       0.55878   0.49295   0.77527  -0.21783
C          C       0.50478   0.06430   0.76842  -0.21599
C          C       0.06362   0.55705   0.79602  -0.21258
C          C       0.44019   0.50674   0.70663  -0.21367
C          C       0.49442   0.93335   0.75934  -0.21638
C          C       0.99726   0.52897   0.80127  -0.18552
C          C       0.46943   0.46954   0.71329  -0.17838
C          C       0.53142   0.99817   0.77391  -0.18240
C          C      -0.00055   0.46924   0.74667  -0.18199
C          C       0.52983   0.53039   0.76436  -0.18033
C          C       0.46730   0.99887   0.76059  -0.18391
S          S       0.92455   0.48858   0.29525   0.09628
S          S       0.50846   0.43598   0.21962   0.10280
S          S       0.56285   0.07119   0.27623   0.10504
S          S       0.07372   0.50500   0.23549   0.09873
S          S       0.49336   0.56620   0.25786   0.10276
S          S       0.43100   0.92629   0.25063   0.09684
S          S       0.92464   0.49262   0.79549   0.09652
S          S       0.50790   0.43496   0.72542   0.10225
S          S       0.56640   0.07059   0.77677   0.09980
S          S       0.07239   0.50614   0.74865   0.09808
S          S       0.49181   0.56526   0.75011   0.10262
S          S       0.43294   0.92719   0.74828   0.10093
N          N       0.85016   0.43664   0.26366  -0.27859
N          N       0.56449   0.41639   0.22744  -0.29913
N          N       0.58405   0.14713   0.26036  -0.28062
N          N       0.14933   0.56021   0.25145  -0.28852
N          N       0.44056   0.58908   0.23027  -0.27539
N          N       0.41361   0.85233   0.23352  -0.29101
N          N       0.85021   0.44125   0.75840  -0.27819
N          N       0.56410   0.41623   0.72906  -0.29765
N          N       0.58803   0.14815   0.75837  -0.28358
N          N       0.14846   0.56102   0.75512  -0.28672
N          N       0.43893   0.58741   0.72781  -0.27646
N          N       0.41380   0.85231   0.73137  -0.29075

