data_crystal

_audit_creation_method 'AiiDA-DDEC plugin'

_cell_length_a        44.23927
_cell_length_b        44.63819
_cell_length_c         8.03716

_cell_angle_alpha     113.29708
_cell_angle_beta     69.54864
_cell_angle_gamma     120.24043

_symmetry_space_group_name_Hall 'P 1'
_symmetry_space_group_name_H-M  'P 1'

loop_
_symmetry_equiv_pos_as_xyz
 'x,y,z'

loop_
_atom_site_label
_atom_site_type_symbol
_atom_site_fract_x
_atom_site_fract_y
_atom_site_fract_z
_atom_site_charge
H          H       0.69333   0.39610   0.24796   0.10327
H          H       0.60174   0.29462   0.24180   0.09944
H          H       0.70441   0.30300   0.20879   0.10141
H          H       0.30802   0.60310   0.25728   0.10054
H          H       0.40073   0.70382   0.25913   0.10554
H          H       0.29810   0.69565   0.28545   0.10179
H          H       0.74665   0.41760   0.14693   0.10140
H          H       0.58458   0.31597   0.10710   0.09622
H          H       0.67735   0.24430   0.01619   0.10625
H          H       0.26734   0.58087   0.04999   0.10284
H          H       0.42751   0.67069   0.10297   0.10708
H          H       0.32538   0.73887   0.18215   0.10724
H          H       0.80982   0.45629   0.17400   0.12077
H          H       0.54693   0.34491   0.13206   0.11968
H          H       0.65080   0.18066   0.02484   0.12131
H          H       0.20263   0.54490   0.03813   0.12215
H          H       0.46571   0.64333   0.08523   0.12194
H          H       0.35281   0.80307   0.18771   0.11947
H          H       0.81096   0.37720   0.34698   0.10467
H          H       0.61744   0.44520   0.43901   0.10145
H          H       0.56290   0.19554   0.43828   0.10612
H          H       0.18004   0.62911   0.47786   0.10126
H          H       0.37585   0.56628   0.35513   0.10596
H          H       0.44376   0.82051   0.35678   0.10759
H          H       0.74840   0.33984   0.32931   0.10559
H          H       0.65400   0.41653   0.41939   0.10395
H          H       0.58933   0.25893   0.43058   0.09835
H          H       0.24424   0.66452   0.49333   0.10652
H          H       0.33815   0.59446   0.38135   0.09920
H          H       0.41627   0.75769   0.35932   0.10319
H          H       0.86483   0.40654   0.28624   0.07329
H          H       0.59659   0.46472   0.32522   0.07161
H          H       0.53843   0.13669   0.24884   0.07596
H          H       0.14161   0.60624   0.25957   0.07509
H          H       0.40890   0.53511   0.14441   0.07393
H          H       0.46726   0.86453   0.25465   0.07192
H          H       0.92696   0.42026   0.28677   0.12018
H          H       0.58326   0.51639   0.34156   0.12397
H          H       0.48745   0.07411   0.25844   0.11848
H          H       0.07569   0.59430   0.26627   0.12772
H          H       0.42063   0.48393   0.12985   0.11820
H          H       0.51754   0.92916   0.26496   0.12808
H          H       0.45429   0.02312   0.06188   0.10028
H          H       0.97767   0.41107   0.05256   0.11533
H          H       0.58011   0.57722   0.07775   0.10404
H          H       0.59095   0.00664   0.99394   0.10609
H          H       0.98797   0.56570   0.07437   0.10128
H          H       0.41557   0.42838  -0.00415   0.11054
H          H       0.42764   0.03855   0.27318   0.09324
H          H       0.96022   0.39706   0.26211   0.09407
H          H       0.60052   0.55573   0.12293   0.09182
H          H       0.56962   0.96209   0.02155   0.09710
H          H       0.03450   0.58671   0.08097   0.09126
H          H       0.39833   0.43865   0.24175   0.09984
H          H       0.40746   0.99636   0.11073   0.12174
H          H       0.00091   0.39534   0.11847   0.11328
H          H       0.60902   0.60185   0.24430   0.11381
H          H       0.61013   0.99428   0.10671   0.11217
H          H       0.00740   0.61078   0.21713   0.11158
H          H       0.39525   0.39436   0.11530   0.11899
H          H       0.69022   0.39533   0.73625   0.10209
H          H       0.59707   0.29554   0.74641   0.09903
H          H       0.69755   0.30278   0.73825   0.09951
H          H       0.30490   0.60317   0.75449   0.10012
H          H       0.39663   0.70445   0.75951   0.10297
H          H       0.29364   0.69449   0.77641   0.09945
H          H       0.74200   0.42288   0.72717   0.10557
H          H       0.58151   0.31605   0.59939   0.09854
H          H       0.67404   0.24661   0.53853   0.10510
H          H       0.26564   0.57872   0.55226   0.10304
H          H       0.42429   0.67152   0.60936   0.10797
H          H       0.31951   0.73924   0.69100   0.10592
H          H       0.80625   0.45716   0.73164   0.12260
H          H       0.54366   0.34447   0.62186   0.11939
H          H       0.64859   0.18278   0.54282   0.12249
H          H       0.20136   0.53913   0.54498   0.12093
H          H       0.46156   0.64294   0.58868   0.12355
H          H       0.34666   0.80355   0.69939   0.11955
H          H       0.80912   0.36453   0.75977   0.10625
H          H       0.61358   0.44526   0.92923   0.10129
H          H       0.55625   0.19339   0.92750   0.10593
H          H       0.17478   0.62385   0.95360   0.10210
H          H       0.37077   0.56609   0.85627   0.10512
H          H       0.44007   0.81976   0.83987   0.10869
H          H       0.74586   0.33052   0.75694   0.10333
H          H       0.65012   0.41688   0.91424   0.10342
H          H       0.58186   0.25716   0.92650   0.09960
H          H       0.23880   0.66274   0.96851   0.10491
H          H       0.33389   0.59506   0.88272   0.09935
H          H       0.41288   0.75719   0.84172   0.10506
H          H       0.85610   0.40333   0.85305   0.07672
H          H       0.59169   0.46449   0.82127   0.07106
H          H       0.53614   0.13503   0.70426   0.07249
H          H       0.13778   0.59443   0.71111   0.07342
H          H       0.40246   0.53414   0.64985   0.07174
H          H       0.46015   0.86792   0.79687   0.07115
H          H       0.92204   0.41522   0.84200   0.12910
H          H       0.57813   0.51553   0.83848   0.11786
H          H       0.48594   0.07146   0.68764   0.11583
H          H       0.07489   0.58067   0.69322   0.11590
H          H       0.41366   0.48225   0.64547   0.11552
H          H       0.50935   0.93174   0.80577   0.12835
H          H       0.43615   0.03207   0.61280   0.10624
H          H       0.97856   0.40155   0.56341   0.09625
H          H       0.59626   0.55205   0.65454   0.09236
H          H       0.58414  -0.00024   0.51118   0.10863
H          H       0.04233   0.58925   0.59514   0.10312
H          H       0.42383   0.42756   0.45461   0.10679
H          H       0.43234   0.04225   0.85822   0.10365
H          H       0.00201   0.39075   0.65825   0.11092
H          H       0.60627   0.59881   0.76209   0.11223
H          H       0.56183   0.95867   0.57856   0.09482
H          H       0.03099   0.60121   0.84376   0.09883
H          H       0.39036   0.42880   0.66210   0.09384
H          H       0.39477   0.00945   0.74960   0.12087
H          H       0.02603   0.42547   0.54031   0.10580
H          H       0.58235   0.57468   0.57401   0.10526
H          H       0.60229   0.99328   0.65663   0.10923
H          H       0.00791   0.60441   0.71171   0.12481
H          H       0.39864   0.38951   0.54788   0.12036
C          C       0.70386   0.35254   0.22889   0.07628
C          C       0.64511   0.34734   0.24359   0.07885
C          C       0.65139   0.29458   0.22365   0.07846
C          C       0.29903   0.64728   0.27332   0.07471
C          C       0.35721   0.65170   0.25911   0.08222
C          C       0.35175   0.70475   0.27213   0.07586
C          C       0.68182   0.36772   0.24064  -0.18198
C          C       0.63023   0.31078   0.23657  -0.18376
C          C       0.68815   0.31562   0.21759  -0.18243
C          C       0.32038   0.63151   0.26301  -0.18461
C          C       0.37224   0.68814   0.26359  -0.18097
C          C       0.31488   0.68385   0.27984  -0.18359
C          C       0.74216   0.37525   0.23508   0.05442
C          C       0.62273   0.36423   0.25682   0.06194
C          C       0.63514   0.25632   0.22195   0.05762
C          C       0.26058   0.62565   0.26999   0.06020
C          C       0.37976   0.63485   0.24468   0.05497
C          C       0.36853   0.74280   0.26944   0.06086
C          C       0.76029   0.40876   0.19418  -0.12716
C          C       0.59170   0.34424   0.18089  -0.12711
C          C       0.65233   0.23373   0.10942  -0.12746
C          C       0.24819   0.59138   0.14462  -0.12785
C          C       0.41618   0.64831   0.16236  -0.12349
C          C       0.35100   0.75675   0.22452  -0.13445
C          C       0.79592   0.43058   0.20719  -0.14924
C          C       0.57056   0.36014   0.19388  -0.14510
C          C       0.63761   0.19811   0.11308  -0.15132
C          C       0.21221   0.57116   0.13689  -0.15278
C          C       0.43771   0.63286   0.14975  -0.15076
C          C       0.36632   0.79274   0.22595  -0.13945
C          C       0.81547   0.41973   0.25832   0.19177
C          C       0.57993   0.39706   0.28130   0.20727
C          C       0.60463   0.18342   0.22744   0.20452
C          C       0.18725   0.58498   0.25284   0.20345
C          C       0.42336   0.60234   0.21373   0.20102
C          C       0.40045   0.81642   0.26859   0.19832
C          C       0.79754   0.38608   0.29853  -0.17362
C          C       0.61055   0.41710   0.36176  -0.17378
C          C       0.58732   0.20588   0.34100  -0.17923
C          C       0.19933   0.61898   0.38110  -0.18468
C          C       0.38685   0.58834   0.29371  -0.17838
C          C       0.41817   0.80265   0.31398  -0.17172
C          C       0.76179   0.36465   0.28777  -0.12730
C          C       0.63134   0.40092   0.34987  -0.12073
C          C       0.60238   0.24157   0.33732  -0.12568
C          C       0.23539   0.63882   0.38957  -0.12545
C          C       0.36571   0.60453   0.30968  -0.12742
C          C       0.40251   0.76683   0.31488  -0.12430
C          C       0.87276   0.43394   0.28250   0.06992
C          C       0.56956   0.44490   0.30104   0.05881
C          C       0.55757   0.12752   0.24578   0.05977
C          C       0.13127   0.57763   0.25156   0.06206
C          C       0.43507   0.55481   0.18139   0.06432
C          C       0.44764   0.87309   0.25793   0.05791
C          C       0.90965   0.45758   0.28721  -0.00946
C          C       0.54812   0.45917   0.28695  -0.00612
C          C       0.54270   0.09107   0.25476  -0.01937
C          C       0.09378   0.55606   0.25284  -0.01681
C          C       0.45609   0.54015   0.19654  -0.00761
C          C       0.46190   0.90986   0.25619  -0.01901
C          C       0.97038   0.50783   0.27941  -0.09327
C          C       0.50119   0.46711   0.23167  -0.11169
C          C       0.53313   0.03151   0.25661  -0.08504
C          C       0.03332   0.50619   0.25990  -0.11044
C          C       0.50217   0.53058   0.24776  -0.09678
C          C       0.47049   0.96913   0.25565  -0.10111
C          C       0.96992   0.47495   0.27442  -0.01608
C          C       0.53153   0.50040   0.27586  -0.01114
C          C       0.50064   0.03169   0.25589  -0.02653
C          C       0.03364   0.53887   0.26741  -0.01613
C          C       0.47140   0.49707   0.20074  -0.01443
C          C       0.50274   0.96944   0.25958  -0.01149
C          C       0.93454   0.44723   0.28375  -0.19620
C          C       0.55800   0.49495   0.30570  -0.20234
C          C       0.50734   0.06663   0.25757  -0.20091
C          C       0.06887   0.56704   0.26236  -0.20125
C          C       0.44582   0.50405   0.17075  -0.20516
C          C       0.49697   0.93506   0.25941  -0.19528
C          C       0.00131   0.53975   0.28308   0.14377
C          C       0.47136   0.46487   0.19439   0.14680
C          C       0.53448   0.00134   0.25978   0.14026
C          C       0.00219   0.47453   0.26504   0.16198
C          C       0.53169   0.53255   0.28357   0.13315
C          C       0.46886  -0.00051   0.25454   0.15262
C          C       0.43136   0.01487   0.17180  -0.18748
C          C       0.98448   0.41023   0.16907  -0.18965
C          C       0.58904   0.57548   0.18402  -0.18927
C          C       0.58527   0.99069   0.08488  -0.19429
C          C       0.00798   0.58431   0.16249  -0.18859
C          C       0.41163   0.42313   0.12622  -0.18491
C          C       0.69939   0.35224   0.73856   0.07208
C          C       0.64134   0.34757   0.74290   0.07963
C          C       0.64603   0.29486   0.73572   0.07797
C          C       0.29521   0.64655   0.76607   0.07629
C          C       0.35355   0.65216   0.75876   0.08374
C          C       0.34742   0.70451   0.76736   0.07697
C          C       0.67816   0.36748   0.73970  -0.17866
C          C       0.62560   0.31121   0.74150  -0.18143
C          C       0.68257   0.31568   0.73521  -0.18123
C          C       0.31691   0.63150   0.75949  -0.18859
C          C       0.36823   0.68847   0.76199  -0.17886
C          C       0.31063   0.68309   0.77251  -0.18711
C          C       0.73794   0.37362   0.74346   0.05803
C          C       0.61926   0.36446   0.75122   0.06181
C          C       0.62992   0.25664   0.73323   0.05657
C          C       0.25699   0.62373   0.76010   0.05469
C          C       0.37603   0.63555   0.74792   0.05264
C          C       0.36382   0.74260   0.76535   0.05854
C          C       0.75613   0.40984   0.73787  -0.12363
C          C       0.58843   0.34430   0.67338  -0.12836
C          C       0.64848   0.23511   0.62625  -0.12101
C          C       0.24572   0.58849   0.64238  -0.12697
C          C       0.41252   0.64894   0.66772  -0.12224
C          C       0.34560   0.75685   0.72819  -0.13165
C          C       0.79240   0.42947   0.74003  -0.14522
C          C       0.56714   0.35994   0.68497  -0.14260
C          C       0.63434   0.19942   0.62680  -0.15221
C          C       0.20988   0.56629   0.63675  -0.15737
C          C       0.43356   0.63284   0.65359  -0.15192
C          C       0.36070   0.79292   0.73150  -0.14236
C          C       0.81244   0.41404   0.75051   0.20053
C          C       0.57620   0.39683   0.77203   0.20680
C          C       0.60039   0.18353   0.73104   0.20656
C          C       0.18385   0.57907   0.74557   0.20949
C          C       0.41868   0.60192   0.71492   0.20253
C          C       0.39520   0.81649   0.76896   0.20071
C          C       0.79461   0.37768   0.75382  -0.17129
C          C       0.60675   0.41710   0.85327  -0.16964
C          C       0.58167   0.20489   0.83888  -0.18099
C          C       0.19488   0.61431   0.86365  -0.18790
C          C       0.38220   0.58837   0.79595  -0.17827
C          C       0.41377   0.80237   0.80490  -0.17141
C          C       0.75844   0.35825   0.75084  -0.11932
C          C       0.62758   0.40113   0.84370  -0.12077
C          C       0.59629   0.24079   0.83918  -0.12905
C          C       0.23083   0.63609   0.87142  -0.12264
C          C       0.36153   0.60505   0.81219  -0.12777
C          C       0.39831   0.76650   0.80436  -0.12068
C          C       0.86737   0.42719   0.80310   0.07404
C          C       0.56488   0.44435   0.79507   0.06105
C          C       0.55401   0.12647   0.72136   0.06255
C          C       0.12745   0.56748   0.72850   0.07084
C          C       0.42913   0.55346   0.68129   0.06272
C          C       0.44103   0.87458   0.77765   0.06128
C          C       0.90497   0.44896   0.79556  -0.01365
C          C       0.54296   0.45843   0.78396  -0.00229
C          C       0.53852   0.08999   0.73065  -0.02268
C          C       0.08981   0.54581   0.73739  -0.02005
C          C       0.45007   0.53858   0.69490  -0.00894
C          C       0.45527   0.91071   0.76657  -0.01475
C          C       0.96619   0.49707   0.75812  -0.11523
C          C       0.49553   0.46648   0.73502  -0.10891
C          C       0.52720   0.03146   0.75369  -0.09583
C          C       0.02821   0.49794   0.77033  -0.09675
C          C       0.49690   0.52965   0.74354  -0.09313
C          C       0.46531   0.96830   0.73544  -0.10819
C          C       0.96487   0.46704   0.78909  -0.00869
C          C       0.52615   0.49981   0.77591  -0.00570
C          C       0.49592   0.03059   0.72852  -0.02835
C          C       0.02992   0.52864   0.73996  -0.02500
C          C       0.46565   0.49623   0.70453  -0.02090
C          C       0.49648   0.96966   0.76007  -0.00962
C          C       0.92928   0.44008   0.81339  -0.19344
C          C       0.55270   0.49425   0.80433  -0.20355
C          C       0.50395   0.06492   0.71457  -0.19958
C          C       0.06598   0.55529   0.72038  -0.19954
C          C       0.43951   0.50269   0.67721  -0.20272
C          C       0.48986   0.93640   0.77879  -0.19674
C          C       0.99782   0.52771   0.73388   0.15391
C          C       0.46524   0.46429   0.70436   0.14374
C          C       0.52800   0.00183   0.76690   0.14357
C          C       0.99678   0.46743   0.79082   0.13482
C          C       0.52646   0.53190   0.78122   0.14037
C          C       0.46436   0.99797   0.72016   0.14636
C          C       0.42381   0.02102   0.73274  -0.18227
C          C       0.00116   0.41248   0.63097  -0.18832
C          C       0.58665   0.57285   0.69581  -0.18952
C          C       0.57777   0.98794   0.62270  -0.19062
C          C       0.02065   0.58914   0.71549  -0.18038
C          C       0.41101   0.41902   0.58210  -0.18760
S          S       0.92806   0.50265   0.28772   0.13357
S          S       0.50582   0.43054   0.23128   0.14614
S          S       0.56974   0.07303   0.25399   0.13922
S          S       0.07537   0.51086   0.24915   0.13841
S          S       0.49793   0.56796   0.25710   0.15151
S          S       0.43439   0.92720   0.25428   0.14233
S          S       0.92446   0.49094   0.75217   0.14058
S          S       0.50049   0.42984   0.73101   0.14328
S          S       0.56368   0.07334   0.76229   0.13928
S          S       0.06978   0.50343   0.77624   0.13191
S          S       0.49269   0.56653   0.74576   0.15403
S          S       0.42907   0.92634   0.73513   0.13814
N          N       0.85113   0.44395   0.26778  -0.29932
N          N       0.55790   0.41072   0.27816  -0.29128
N          N       0.59153   0.14768   0.22857  -0.27972
N          N       0.15144   0.56341   0.24021  -0.27176
N          N       0.44637   0.58907   0.20900  -0.28551
N          N       0.41398   0.85190   0.26220  -0.28469
N          N       0.84868   0.43596   0.75276  -0.30019
N          N       0.55385   0.41016   0.76878  -0.29107
N          N       0.58726   0.14763   0.72883  -0.27763
N          N       0.14804   0.55573   0.73830  -0.27855
N          N       0.44121   0.58775   0.70569  -0.28537
N          N       0.40829   0.85195   0.76305  -0.28716
O          O       0.43539   0.99520   0.26175  -0.15662
O          O       0.00593   0.44598   0.26771  -0.15789
O          O       0.55972   0.56578   0.33480  -0.18530
O          O       0.56628   0.00292   0.26547  -0.19015
O          O      -0.00016   0.57218   0.32125  -0.18879
O          O       0.44483   0.43043   0.15945  -0.15404
O          O       0.43170   0.99161   0.70237  -0.15215
O          O       0.99696   0.43776   0.80860  -0.18982
O          O       0.55414   0.56532   0.83279  -0.18831
O          O       0.55896   0.00448   0.79007  -0.19084
O          O       0.99293   0.55346   0.70843  -0.14109
O          O       0.43682   0.43074   0.69053  -0.16147

