data_crystal

_audit_creation_method 'AiiDA-DDEC plugin'

_cell_length_a        44.23856
_cell_length_b        44.34509
_cell_length_c         8.21551

_cell_angle_alpha     72.33520
_cell_angle_beta     113.91977
_cell_angle_gamma     119.76892

_symmetry_space_group_name_Hall 'P 1'
_symmetry_space_group_name_H-M  'P 1'

loop_
_symmetry_equiv_pos_as_xyz
 'x,y,z'

loop_
_atom_site_label
_atom_site_type_symbol
_atom_site_fract_x
_atom_site_fract_y
_atom_site_fract_z
_atom_site_charge
H          H       0.69512   0.39927   0.26619   0.10007
H          H       0.60504   0.29730   0.23664   0.10239
H          H       0.71021   0.31161   0.25789   0.10181
H          H       0.31146   0.60688   0.24733   0.10462
H          H       0.40091   0.70926   0.24155   0.10360
H          H       0.29808   0.69766   0.23011   0.10213
H          H       0.73314   0.42306   0.08585   0.10096
H          H       0.57470   0.32899   0.06387   0.10806
H          H       0.68707   0.26349   0.19812   0.10739
H          H       0.25572   0.58137   0.16383   0.10655
H          H       0.41674   0.68587   0.11225   0.10243
H          H       0.31941   0.75155   0.03000   0.10574
H          H       0.79732   0.46149   0.08300   0.12053
H          H       0.53407   0.35441   0.04208   0.12273
H          H       0.66114   0.20014   0.18765   0.12000
H          H       0.19251   0.54438   0.17824   0.12299
H          H       0.45635   0.65906   0.13446   0.12008
H          H       0.34520   0.81563   0.03610   0.12291
H          H       0.83043   0.38255   0.44211   0.09880
H          H       0.62455   0.43047   0.38230   0.10699
H          H       0.56250   0.18576   0.24724   0.10802
H          H       0.19508   0.62923   0.34228   0.10875
H          H       0.39233   0.56432   0.41037   0.10540
H          H       0.44295   0.81310   0.44365   0.10534
H          H       0.76694   0.34506   0.45308   0.10596
H          H       0.66471   0.40438   0.40936   0.09965
H          H       0.58845   0.24769   0.26748   0.10488
H          H       0.25773   0.66499   0.33739   0.10600
H          H       0.35451   0.59130   0.39814   0.10760
H          H       0.41682   0.74899   0.44156   0.10399
H          H       0.86277   0.40648   0.22757   0.06998
H          H       0.59090   0.45995   0.16012   0.07543
H          H       0.55848   0.13615   0.34152   0.07520
H          H       0.14422   0.59674   0.33391   0.07057
H          H       0.40911   0.54411   0.27957   0.06920
H          H       0.45888   0.86371   0.20648   0.07659
H          H       0.92356   0.41724   0.21201   0.11384
H          H       0.57998   0.51222   0.15181   0.12534
H          H       0.50469   0.07575   0.32641   0.12784
H          H       0.08280   0.58470   0.34494   0.12906
H          H       0.41935   0.49207   0.28491   0.12487
H          H       0.50858   0.92572   0.16639   0.11700
H          H       0.44787   0.04583   0.12983   0.06497
H          H       0.95541   0.41770   0.04448   0.06371
H          H       0.60583   0.55578   0.36055   0.06022
H          H       0.54923   0.96018   0.05208   0.06047
H          H       0.98927   0.57728   0.03540   0.07197
H          H       0.42351   0.42449   0.02862   0.06587
H          H       0.42026   0.02800   0.27420   0.07030
H          H       0.95877   0.39486   0.26731   0.06085
H          H       0.58360   0.57000   0.44125   0.07068
H          H       0.56897   0.96041   0.28966   0.06552
H          H       0.03722   0.59654   0.13331   0.05882
H          H       0.39853   0.44553   0.03415   0.05750
H          H       0.40926   0.99154   0.97885   0.09549
H          H       0.00326   0.40475   0.03602   0.09766
H          H       0.62659   0.61448   0.17142   0.08843
H          H       0.60728   0.00798   0.00768   0.09654
H          H       0.02324   0.64405   0.08429   0.08288
H          H       0.35943   0.38229   0.03759   0.08399
H          H       0.38626   0.01680   0.94552   0.08348
H          H       0.96388   0.36643   0.06191   0.08288
H          H       0.64426   0.61762   0.40292   0.08538
H          H       0.61215   0.96962   0.13061   0.08727
H          H       0.02666   0.62829   0.31114   0.08832
H          H       0.36923   0.39499   0.24224   0.08324
H          H       0.62160   0.66426   0.23081   0.11747
H          H       0.34747   0.95134   0.00338   0.11778
H          H       0.02215   0.36036   0.25928   0.11647
H          H       0.40772   0.35907   0.18086   0.12120
H          H       0.66549   0.02419   0.26159   0.11982
H          H       0.95554   0.61482   0.99095   0.11521
H          H       0.59499   0.63452   0.37461   0.12286
H          H       0.35311   0.97450   0.16352   0.10919
H          H       0.99676   0.35606   0.39233   0.11122
H          H       0.37564   0.33915   0.30212   0.11801
H          H       0.64168   0.99670   0.41896   0.11218
H          H       0.97058   0.63922   0.16624   0.11396
H          H       0.57734   0.63122   0.14214   0.12670
H          H       0.37879   0.95022   0.22119   0.12233
H          H       0.03556   0.39584   0.36919   0.13232
H          H       0.41939   0.37339   0.38561   0.12541
H          H       0.63475   0.03447   0.29659   0.13025
H          H       0.95556   0.59311   0.21091   0.12376
H          H       0.69520   0.39588   0.76973   0.09999
H          H       0.60195   0.29619   0.72747   0.10281
H          H       0.70644   0.30491   0.77400   0.10252
H          H       0.30857   0.60274   0.75332   0.10304
H          H       0.39815   0.70513   0.74155   0.10340
H          H       0.29532   0.69396   0.72704   0.10007
H          H       0.73135   0.41777   0.59316   0.09964
H          H       0.57355   0.32834   0.56581   0.10918
H          H       0.67510   0.25753   0.65807   0.10599
H          H       0.25194   0.57771   0.66342   0.10550
H          H       0.41468   0.68132   0.62156   0.10113
H          H       0.31510   0.74624   0.52603   0.10353
H          H       0.79574   0.45675   0.59520   0.12117
H          H       0.53477   0.35589   0.54433   0.12327
H          H       0.64524   0.19341   0.65089   0.11916
H          H       0.18849   0.54174   0.67762   0.12324
H          H       0.45392   0.65405   0.64496   0.12051
H          H       0.33873   0.80995   0.53324   0.12071
H          H       0.82874   0.37731   0.94812   0.09914
H          H       0.62742   0.43145   0.87985   0.10720
H          H       0.55943   0.18418   0.81185   0.10507
H          H       0.19326   0.62758   0.84333   0.10506
H          H       0.38777   0.55881   0.90927   0.10162
H          H       0.43705   0.80971   0.94445   0.10410
H          H       0.76500   0.33922   0.95508   0.10406
H          H       0.66593   0.40354   0.90595   0.09851
H          H       0.58954   0.24647   0.82868   0.10254
H          H       0.25607   0.66224   0.83933   0.10420
H          H       0.35049   0.58631   0.89767   0.10288
H          H       0.41348   0.74623   0.93789   0.10134
H          H       0.86091   0.40243   0.73231   0.06780
H          H       0.59469   0.46218   0.66202   0.07482
H          H       0.53915   0.13457   0.79317   0.07507
H          H       0.14140   0.59578   0.82898   0.07619
H          H       0.40592   0.53847   0.78459   0.07230
H          H       0.45354   0.86099   0.73205   0.07680
H          H       0.92176   0.41404   0.71197   0.11462
H          H       0.58272   0.51461   0.65861   0.12238
H          H       0.48674   0.07223   0.78748   0.13123
H          H       0.07922   0.58352   0.83393   0.12426
H          H       0.41789   0.48736   0.78568   0.11462
H          H       0.50359   0.92222   0.72051   0.11704
H          H       0.43107   0.03491   0.55283   0.06465
H          H       0.95420   0.41570   0.54012   0.06255
H          H       0.60598   0.55732   0.85465   0.05774
H          H       0.53763   0.95916   0.57225   0.06951
H          H       0.02349   0.58622   0.59932   0.07247
H          H       0.40679   0.44647   0.51881   0.06964
H          H       0.40570   0.02754   0.69376   0.07104
H          H       0.95716   0.39282   0.76292   0.06017
H          H       0.58465   0.57072   0.94552   0.06913
H          H       0.56494   0.95819   0.80376   0.06082
H          H       0.03855   0.61169   0.77239   0.06276
H          H       0.38956   0.43378   0.70398   0.05560
H          H       0.39016   0.97343   0.47624   0.09353
H          H       0.00324   0.40326   0.53943   0.09762
H          H       0.62456   0.61595   0.66440   0.08640
H          H       0.58930   0.00464   0.47633   0.09037
H          H       0.96071   0.58150   0.51150   0.09974
H          H       0.39981   0.38754   0.53822   0.09468
H          H       0.36621  -0.00060   0.40640   0.08662
H          H       0.96331   0.36501   0.55866   0.08278
H          H       0.64392   0.61924   0.89592   0.08509
H          H       0.59951   0.96909   0.60245   0.08516
H          H       0.99380   0.62456   0.48064   0.08842
H          H       0.35775   0.38516   0.52369   0.08758
H          H       0.61968   0.66513   0.72877   0.11681
H          H       0.33101   0.93938   0.55022   0.12199
H          H       0.01996   0.35716   0.76617   0.11728
H          H       0.37157   0.36690   0.86151   0.10928
H          H       0.65266   0.02827   0.67001   0.11887
H          H       0.95229   0.62591   0.60483   0.11922
H          H       0.59514   0.63549   0.88090   0.12248
H          H       0.34348   0.97207   0.67702   0.11294
H          H       0.99423   0.35429   0.89319   0.11041
H          H       0.41342   0.36910   0.87142   0.13091
H          H       0.64008   0.00329   0.86562   0.11279
H          H       0.99545   0.63581   0.77282   0.11262
H          H       0.57541   0.63135   0.64906   0.12735
H          H       0.36827   0.94645   0.75172   0.12428
H          H       0.03394   0.39329   0.87336   0.13305
H          H       0.37106   0.33737   0.75447   0.11846
H          H       0.62671   0.03776   0.74736   0.13362
H          H       0.95893   0.59344   0.78542   0.12248
C          C       0.70686   0.35768   0.26508   0.07364
C          C       0.64713   0.34973   0.25074   0.08269
C          C       0.65558   0.29912   0.24779   0.07472
C          C       0.29994   0.64913   0.24152   0.07778
C          C       0.35866   0.65608   0.24232   0.08111
C          C       0.35095   0.70748   0.23431   0.07756
C          C       0.68406   0.37136   0.26204  -0.18490
C          C       0.63355   0.31388   0.24430  -0.18214
C          C       0.69239   0.32167   0.25920  -0.18615
C          C       0.32235   0.63499   0.24384  -0.18152
C          C       0.37268   0.69238   0.23949  -0.19201
C          C       0.31465   0.68571   0.23320  -0.18811
C          C       0.74509   0.38080   0.26634   0.05871
C          C       0.62287   0.36471   0.23876   0.05420
C          C       0.64037   0.26125   0.23754   0.05631
C          C       0.26217   0.62641   0.24947   0.05815
C          C       0.38179   0.64033   0.24883   0.06094
C          C       0.36633   0.74563   0.23488   0.05610
C          C       0.75449   0.41421   0.16509  -0.12727
C          C       0.58553   0.35072   0.13740  -0.12453
C          C       0.66019   0.24663   0.21526  -0.13078
C          C       0.24305   0.59176   0.20822  -0.12648
C          C       0.41154   0.65936   0.17978  -0.13381
C          C       0.34626   0.76491   0.12277  -0.12469
C          C       0.79023   0.43577   0.16210  -0.15530
C          C       0.56269   0.36506   0.12312  -0.15500
C          C       0.64578   0.21094   0.20817  -0.15122
C          C       0.20730   0.57089   0.21359  -0.14580
C          C       0.43379   0.64459   0.19096  -0.14764
C          C       0.36053   0.80071   0.12519  -0.15700
C          C       0.81801   0.42426   0.25692   0.21170
C          C       0.57663   0.39479   0.20603   0.20365
C          C       0.61063   0.18787   0.22365   0.20429
C          C       0.18870   0.58371   0.25909   0.19148
C          C       0.42655   0.60964   0.26767   0.20509
C          C       0.39602   0.81873   0.23689   0.20819
C          C       0.80890   0.39107   0.36095  -0.18573
C          C       0.61396   0.40896   0.30769  -0.18008
C          C       0.59021   0.20242   0.24061  -0.17303
C          C       0.20776   0.61842   0.30067  -0.17517
C          C       0.39721   0.59062   0.34027  -0.17470
C          C       0.41616   0.79960   0.35079  -0.18524
C          C       0.77319   0.36998   0.36638  -0.12438
C          C       0.63642   0.39402   0.32383  -0.12689
C          C       0.60491   0.23796   0.24914  -0.11953
C          C       0.24352   0.63894   0.29700  -0.12981
C          C       0.37561   0.60580   0.33202  -0.12477
C          C       0.40139   0.76364   0.34955  -0.12852
C          C       0.87355   0.43425   0.24083   0.06773
C          C       0.56417   0.44136   0.17991   0.06612
C          C       0.57029   0.12932   0.27096   0.07047
C          C       0.13378   0.57043   0.30036   0.07490
C          C       0.43669   0.56278   0.27099   0.05987
C          C       0.44279   0.87443   0.22373   0.06384
C          C       0.91112   0.45553   0.24663  -0.01354
C          C       0.54323   0.45705   0.18808  -0.00749
C          C       0.55330   0.09277   0.25228  -0.02074
C          C       0.09661   0.54808   0.29796  -0.00704
C          C       0.45736   0.54711   0.26061  -0.00819
C          C       0.46008   0.91154   0.22895  -0.02976
C          C       0.97387   0.50285   0.27616  -0.09854
C          C       0.49718   0.46927   0.22311  -0.09817
C          C       0.53666   0.03290   0.20810  -0.10347
C          C       0.03424   0.50001   0.26768  -0.10995
C          C       0.50291   0.53483   0.22308  -0.09552
C          C       0.47544   0.97244   0.24751  -0.09668
C          C       0.97055   0.47017   0.25268  -0.02457
C          C       0.52880   0.50060   0.19669  -0.01166
C          C       0.50943   0.03439   0.25290  -0.01255
C          C       0.03736   0.53186   0.29531  -0.00624
C          C       0.47105   0.50358   0.24626  -0.01290
C          C       0.50333   0.97031   0.20844  -0.02340
C          C       0.93386   0.44394   0.23470  -0.20271
C          C       0.55433   0.49263   0.17571  -0.19549
C          C       0.52020   0.06882   0.28190  -0.19921
C          C       0.07362   0.55863   0.31635  -0.19373
C          C       0.44548   0.51157   0.26623  -0.19618
C          C       0.49320   0.93469   0.19894  -0.20295
C          C       0.00623   0.53332   0.29551   0.14367
C          C       0.46836   0.47054   0.24671   0.14802
C          C       0.53432   0.00169   0.18558   0.15614
C          C       0.00184   0.46908   0.24988   0.16126
C          C       0.53146   0.53361   0.19730   0.14679
C          C       0.47777   0.00346   0.26941   0.14807
C          C       0.42978   0.02135   0.19150   0.02746
C          C       0.97362   0.40976   0.16822   0.01780
C          C       0.59293   0.57354   0.32848   0.01251
C          C       0.57022   0.97640   0.15895   0.02362
C          C       0.01123   0.58972   0.15207   0.01744
C          C       0.41044   0.42676   0.11044   0.01545
C          C       0.39792  -0.00063   0.04685  -0.16089
C          C       0.98781   0.38829   0.13125  -0.14469
C          C       0.61887   0.61157   0.28872  -0.14034
C          C       0.60791   0.99154   0.13814  -0.14434
C          C       0.00976   0.62175   0.17442  -0.13925
C          C       0.38162   0.39141   0.16178  -0.14141
C          C       0.60239   0.63693   0.25731  -0.38029
C          C       0.36768   0.96717   0.11280  -0.37652
C          C       0.01182   0.37430   0.29777  -0.37200
C          C       0.39684   0.36415   0.26324  -0.37887
C          C       0.63920   0.01287   0.28746  -0.37355
C          C       0.97072   0.61699   0.13401  -0.37818
C          C       0.70496   0.35283   0.77113   0.07569
C          C       0.64588   0.34767   0.75027   0.08124
C          C       0.65210   0.29550   0.75272   0.07651
C          C       0.29718   0.64532   0.74262   0.07716
C          C       0.35595   0.65186   0.74626   0.07911
C          C       0.34813   0.70356   0.73219   0.07744
C          C       0.68308   0.36788   0.76501  -0.18509
C          C       0.63092   0.31173   0.74253  -0.18110
C          C       0.68937   0.31654   0.76844  -0.18385
C          C       0.31960   0.63091   0.74790  -0.17952
C          C       0.36994   0.68830   0.74018  -0.18534
C          C       0.31189   0.68189   0.73169  -0.18568
C          C       0.74330   0.37542   0.77291   0.05697
C          C       0.62279   0.36396   0.73736   0.05542
C          C       0.63487   0.25743   0.74422   0.05981
C          C       0.25938   0.62309   0.75021   0.05902
C          C       0.37898   0.63579   0.75464   0.06250
C          C       0.36279   0.74167   0.73030   0.05477
C          C       0.75275   0.40904   0.67349  -0.12518
C          C       0.58533   0.35052   0.63782  -0.12277
C          C       0.65022   0.24146   0.69632  -0.13034
C          C       0.23966   0.58849   0.70796  -0.12491
C          C       0.40908   0.65468   0.68798  -0.13221
C          C       0.34180   0.76012   0.61836  -0.12403
C          C       0.78854   0.43089   0.67295  -0.15232
C          C       0.56352   0.36596   0.62366  -0.15659
C          C       0.63340   0.20548   0.69003  -0.14300
C          C       0.20388   0.56823   0.71341  -0.14721
C          C       0.43107   0.63959   0.69960  -0.14036
C          C       0.35479   0.79569   0.62184  -0.15762
C          C       0.81633   0.41945   0.76767   0.20831
C          C       0.57864   0.39614   0.70502   0.20457
C          C       0.60023   0.18382   0.73005   0.19771
C          C       0.18590   0.58164   0.75963   0.19284
C          C       0.42325   0.60443   0.77385   0.20403
C          C       0.38974   0.81427   0.73594   0.20991
C          C       0.80722   0.38594   0.86847  -0.18624
C          C       0.61605   0.40966   0.80574  -0.18087
C          C       0.58461   0.19980   0.77632  -0.16733
C          C       0.20547   0.61635   0.80122  -0.17273
C          C       0.39340   0.58546   0.84290  -0.17466
C          C       0.41078   0.79594   0.84926  -0.18341
C          C       0.77138   0.36453   0.87176  -0.12359
C          C       0.63753   0.39370   0.82142  -0.12548
C          C       0.60164   0.23549   0.78429  -0.12444
C          C       0.24130   0.63624   0.79796  -0.12858
C          C       0.37211   0.60096   0.83492  -0.12054
C          C       0.39742   0.76028   0.84583  -0.12493
C          C       0.87163   0.43010   0.74693   0.06723
C          C       0.56767   0.44377   0.67890   0.06345
C          C       0.55480   0.12645   0.75439   0.06231
C          C       0.13100   0.56928   0.79798   0.06983
C          C       0.43341   0.55745   0.77563   0.05902
C          C       0.43562   0.87068   0.73982   0.06643
C          C       0.90889   0.45182   0.74886  -0.01508
C          C       0.54637   0.45910   0.68617  -0.01226
C          C       0.53887   0.08960   0.74603  -0.02110
C          C       0.09383   0.54688   0.79478  -0.00642
C          C       0.45465   0.54266   0.76268  -0.01053
C          C       0.45147   0.90760   0.74633  -0.02930
C          C       0.97093   0.49981   0.77353  -0.10316
C          C       0.49924   0.46918   0.72097  -0.09370
C          C       0.52610   0.02953   0.72612  -0.09889
C          C       0.03181   0.49827   0.76468  -0.10630
C          C       0.50147   0.53261   0.72332  -0.09566
C          C       0.46408   0.96853   0.74942  -0.08640
C          C       0.96818   0.46746   0.75003  -0.02593
C          C       0.53052   0.50121   0.69941  -0.01163
C          C       0.49657   0.03075   0.74965  -0.00850
C          C       0.03432   0.53004   0.79018  -0.00871
C          C       0.46994   0.50047   0.74400  -0.01535
C          C       0.49435   0.96677   0.73123  -0.02617
C          C       0.93174   0.44073   0.73398  -0.20151
C          C       0.55690   0.49445   0.67851  -0.19598
C          C       0.50476   0.06543   0.76252  -0.20436
C          C       0.07040   0.55720   0.81016  -0.19300
C          C       0.44377   0.50736   0.76612  -0.20015
C          C       0.48584   0.93114   0.73213  -0.21009
C          C       0.00285   0.53072   0.79134   0.14711
C          C       0.46910   0.46834   0.74148   0.14764
C          C       0.52562   0.99847   0.71464   0.16129
C          C      -0.00024   0.46704   0.74688   0.15528
C          C       0.53138   0.53335   0.70087   0.14400
C          C       0.46480  -0.00042   0.75913   0.13442
C          C       0.41390   0.01471   0.63477   0.01707
C          C       0.97232   0.40790   0.66504   0.01878
C          C       0.59282   0.57459   0.82822   0.01376
C          C       0.56170   0.97485   0.67347   0.02206
C          C       0.01480   0.59153   0.69117   0.01963
C          C       0.40468   0.42875   0.64468   0.02477
C          C       0.38060   0.98646   0.52596  -0.15258
C          C       0.98701   0.38655   0.63122  -0.14232
C          C       0.61792   0.61284   0.78551  -0.13878
C          C       0.59547   0.99094   0.61259  -0.14328
C          C       0.98416   0.60308   0.58409  -0.14241
C          C       0.38590   0.39057   0.61250  -0.14040
C          C       0.60122   0.63769   0.75971  -0.37883
C          C       0.35436   0.95959   0.63198  -0.37366
C          C       0.01003   0.37201   0.80068  -0.37239
C          C       0.38544   0.36451   0.78459  -0.37011
C          C       0.63068   0.01637   0.73166  -0.37763
C          C       0.97210   0.61522   0.69310  -0.37064
S          S       0.93300   0.49966   0.27727   0.13251
S          S       0.50048   0.43162   0.22389   0.14369
S          S       0.57339   0.07389   0.19357   0.13949
S          S       0.07506   0.50437   0.25974   0.14179
S          S       0.50053   0.57249   0.22991   0.15363
S          S       0.43897   0.93171   0.26894   0.14576
S          S       0.93007   0.49590   0.77856   0.13564
S          S       0.50326   0.43240   0.71595   0.14385
S          S       0.56271   0.07071   0.71850   0.14124
S          S       0.07298   0.50312   0.75896   0.13988
S          S       0.49771   0.56934   0.73230   0.15431
S          S       0.42716   0.92749   0.75972   0.14010
N          N       0.85348   0.44692   0.24924  -0.28179
N          N       0.55265   0.40780   0.19439  -0.28742
N          N       0.59748   0.15236   0.21133  -0.29431
N          N       0.15284   0.56046   0.26108  -0.30167
N          N       0.44903   0.59631   0.26407  -0.28916
N          N       0.40991   0.85491   0.23375  -0.27883
N          N       0.85172   0.44242   0.76000  -0.28079
N          N       0.55549   0.41017   0.69166  -0.28493
N          N       0.58532   0.14796   0.71922  -0.29693
N          N       0.15000   0.55884   0.76154  -0.30051
N          N       0.44551   0.59094   0.76952  -0.29173
N          N       0.40198   0.85008   0.73567  -0.28652
O          O       0.45106   0.00263   0.31940  -0.22195
O          O       0.00518   0.44066   0.23871  -0.18597
O          O       0.56112   0.56426   0.16853  -0.22559
O          O       0.56319   0.00576   0.14339  -0.18988
O          O       0.00735   0.56407   0.31253  -0.22764
O          O       0.43816   0.44051   0.27549  -0.22809
O          O       0.43604  -0.00041   0.78676  -0.21785
O          O       0.00361   0.43892   0.73528  -0.18770
O          O       0.56006   0.56508   0.67267  -0.22882
O          O       0.55666   0.00337   0.68990  -0.17937
O          O       0.00253   0.55994   0.81585  -0.21727
O          O       0.44135   0.43588   0.76861  -0.21582

