data_crystal

_audit_creation_method 'AiiDA-DDEC plugin'

_cell_length_a        40.13217
_cell_length_b        40.24165
_cell_length_c         7.98222

_cell_angle_alpha     104.66068
_cell_angle_beta     94.57021
_cell_angle_gamma     120.04834

_symmetry_space_group_name_Hall 'P 1'
_symmetry_space_group_name_H-M  'P 1'

loop_
_symmetry_equiv_pos_as_xyz
 'x,y,z'

loop_
_atom_site_label
_atom_site_type_symbol
_atom_site_fract_x
_atom_site_fract_y
_atom_site_fract_z
_atom_site_charge
H          H       0.70041   0.40500   0.24825   0.10325
H          H       0.59600   0.29475   0.23391   0.10091
H          H       0.70433   0.29842   0.21091   0.10269
H          H       0.30236   0.59570   0.23368   0.09963
H          H       0.40602   0.70598   0.23323   0.10342
H          H       0.29636   0.69963   0.25007   0.09994
H          H       0.74914   0.42220   0.13192   0.10740
H          H       0.57224   0.31906   0.04025   0.10348
H          H       0.66626   0.23458   0.08417   0.10505
H          H       0.24060   0.56371   0.07336   0.10419
H          H       0.43042   0.67196   0.15813   0.10534
H          H       0.32001   0.73990   0.08395   0.10118
H          H       0.82147   0.46187   0.15207   0.12034
H          H       0.53046   0.34869   0.06057   0.12134
H          H       0.63253   0.16351   0.08495   0.12240
H          H       0.17106   0.52323   0.09718   0.12159
H          H       0.46809   0.63905   0.17324   0.12143
H          H       0.35050   0.81223   0.10307   0.12182
H          H       0.83370   0.37629   0.33803   0.10701
H          H       0.62539   0.45727   0.47081   0.10322
H          H       0.54989   0.18058   0.34683   0.10486
H          H       0.18424   0.63225   0.44184   0.10679
H          H       0.37273   0.54601   0.31676   0.10718
H          H       0.46008   0.84281   0.41920   0.09812
H          H       0.76330   0.33851   0.32849   0.10225
H          H       0.66649   0.42724   0.45609   0.10514
H          H       0.58381   0.25082   0.35128   0.10132
H          H       0.25394   0.67262   0.42224   0.09915
H          H       0.33653   0.57918   0.31196   0.10476
H          H       0.42876   0.77142   0.41212   0.10389
H          H       0.89216   0.41437   0.35725   0.07529
H          H       0.59306   0.47514   0.24770   0.07894
H          H       0.52509   0.12135   0.32089   0.07518
H          H       0.11907   0.59290   0.25094   0.07968
H          H       0.41115   0.52849   0.35312   0.07935
H          H       0.47733   0.88211   0.22196   0.07351
H          H       0.42655   0.47205   0.36441   0.14276
H          H       0.53076   0.95190   0.18232   0.13861
H          H       0.04553   0.57474   0.22230   0.14340
H          H       0.57641   0.53003   0.23196   0.14375
H          H       0.47207   0.05197   0.35541   0.14118
H          H       0.96505   0.43168   0.38190   0.14292
H          H       0.69630   0.40437   0.74708   0.10243
H          H       0.59217   0.29382   0.73567   0.09996
H          H       0.70076   0.29830   0.70847   0.10291
H          H       0.29959   0.59574   0.73953   0.10014
H          H       0.40160   0.70587   0.72624   0.10232
H          H       0.29198   0.69866   0.75032   0.10078
H          H       0.74524   0.42165   0.62720   0.10430
H          H       0.56691   0.31847   0.55261   0.10310
H          H       0.66327   0.23493   0.57953   0.10623
H          H       0.23759   0.56346   0.57140   0.10578
H          H       0.42682   0.67339   0.65489   0.10565
H          H       0.31640   0.74071   0.58454   0.09825
H          H       0.81747   0.46076   0.64508   0.11744
H          H       0.52706   0.35015   0.57277   0.12236
H          H       0.63146   0.16436   0.58273   0.12274
H          H       0.16803   0.52179   0.59358   0.12322
H          H       0.46607   0.64228   0.66942   0.12047
H          H       0.34881   0.81331   0.60308   0.12174
H          H       0.82960   0.37587   0.83719   0.10671
H          H       0.62581   0.45997   0.96443   0.10485
H          H       0.54866   0.17925   0.85159   0.10682
H          H       0.18048   0.62911   0.95150   0.10715
H          H       0.37313   0.54852   0.82053   0.10644
H          H       0.45724   0.84119   0.91647   0.10028
H          H       0.75915   0.33822   0.82722   0.10425
H          H       0.66476   0.42758   0.95026   0.10626
H          H       0.58107   0.24954   0.85502   0.10115
H          H       0.25004   0.67056   0.93322   0.10128
H          H       0.33516   0.57983   0.81360   0.10347
H          H       0.42446   0.76966   0.90878   0.10380
H          H       0.88668   0.41116   0.84087   0.07545
H          H       0.59397   0.47813   0.74595   0.07855
H          H       0.52432   0.11986   0.82060   0.07593
H          H       0.11553   0.59008   0.75660   0.07854
H          H       0.41318   0.53326   0.85855   0.07859
H          H       0.47608   0.88059   0.72233   0.07333
H          H       0.42901   0.47783   0.87186   0.14303
H          H       0.53077   0.95092   0.68352   0.13978
H          H       0.04308   0.57313   0.73138   0.14316
H          H       0.57755   0.53413   0.72556   0.14078
H          H       0.47243   0.05127   0.85611   0.13943
H          H       0.95949   0.42806   0.87254   0.14311
C          C       0.70766   0.35437   0.22879   0.07713
C          C       0.64568   0.35174   0.23995   0.07903
C          C       0.64788   0.29128   0.22324   0.07871
C          C       0.29456   0.64471   0.24022   0.07834
C          C       0.35735   0.64829   0.23399   0.07059
C          C       0.35333   0.70746   0.24055   0.08187
C          C       0.68601   0.37327   0.24049  -0.18502
C          C       0.62714   0.31101   0.23175  -0.18563
C          C       0.68800   0.31340   0.21969  -0.17985
C          C       0.31696   0.62687   0.23419  -0.18211
C          C       0.37497   0.68869   0.23598  -0.18122
C          C       0.31318   0.68514   0.24351  -0.18337
C          C       0.75021   0.37718   0.22980   0.05730
C          C       0.62233   0.37088   0.24699   0.05149
C          C       0.62794   0.24866   0.21935   0.05919
C          C       0.25260   0.62122   0.24683   0.05750
C          C       0.38027   0.62874   0.23588   0.05870
C          C       0.37221   0.75010   0.24507   0.05706
C          C       0.76766   0.41260   0.18237  -0.13003
C          C       0.58367   0.34913   0.13664  -0.12702
C          C       0.64139   0.22326   0.14583  -0.12299
C          C       0.22854   0.57876   0.15647  -0.12295
C          C       0.41792   0.64505   0.19812  -0.12432
C          C       0.35046   0.76257   0.16101  -0.12753
C          C       0.80813   0.43493   0.19191  -0.14387
C          C       0.56024   0.36548   0.14676  -0.15604
C          C       0.62232   0.18318   0.14355  -0.14518
C          C       0.18953   0.55594   0.16811  -0.15178
C          C       0.43923   0.62657   0.20459  -0.14724
C          C       0.36734   0.80290   0.17018  -0.15262
C          C       0.83313   0.42273   0.24821   0.20155
C          C       0.57529   0.40505   0.26514   0.20810
C          C       0.58882   0.16646   0.21398   0.19532
C          C       0.17263   0.57503   0.26719   0.20522
C          C       0.42387   0.59069   0.24805   0.19643
C          C       0.40745   0.83238   0.25970   0.21014
C          C       0.81565   0.38685   0.29275  -0.16957
C          C       0.61414   0.42729   0.37410  -0.18558
C          C       0.57481   0.19160   0.28521  -0.17216
C          C       0.19639   0.61753   0.35730  -0.17855
C          C       0.38578   0.57360   0.28177  -0.17242
C          C       0.42954   0.82013   0.34331  -0.18345
C          C       0.77535   0.36492   0.28486  -0.11954
C          C       0.63716   0.41030   0.36546  -0.12425
C          C       0.59415   0.23164   0.28792  -0.12566
C          C       0.23565   0.64006   0.34693  -0.12457
C          C       0.36494   0.59245   0.27695  -0.12180
C          C       0.41199   0.77985   0.33803  -0.12404
C          C       0.89915   0.43952   0.30628   0.05519
C          C       0.56348   0.45622   0.26925   0.06029
C          C       0.54210   0.10801   0.27194   0.06457
C          C       0.11010   0.56398   0.27329   0.05643
C          C       0.43818   0.54413   0.30676   0.06302
C          C       0.45838   0.89433   0.24814   0.06025
C          C       0.93994   0.46442   0.30483  -0.01733
C          C       0.53952   0.47340   0.28465  -0.02173
C          C       0.52721   0.06756   0.27382   0.00200
C          C       0.07017   0.54093   0.29048  -0.02400
C          C       0.46304   0.52814   0.30696  -0.01195
C          C       0.47494   0.93589   0.25807  -0.00708
C          C       0.45415   0.49203   0.33458  -0.20401
C          C       0.51076   0.96141   0.22198  -0.20223
C          C       0.04056   0.54886   0.26037  -0.19995
C          C       0.54891   0.51013   0.26298  -0.20356
C          C       0.49190   0.04232   0.31461  -0.20066
C          C       0.96991   0.45734   0.34227  -0.20283
C          C       0.48515   0.48529   0.31716  -0.01426
C          C       0.51673  -0.00014   0.23990  -0.02438
C          C       0.00412   0.51837   0.27747  -0.01612
C          C       0.51787   0.51680   0.28035  -0.02490
C          C       0.48579   0.00377   0.29472  -0.02041
C          C       0.00628   0.48769   0.32376  -0.01588
C          C       0.70366   0.35391   0.72628   0.07859
C          C       0.64165   0.35108   0.74052   0.07881
C          C       0.64427   0.29082   0.72338   0.08034
C          C       0.29096   0.64416   0.74251   0.08073
C          C       0.35385   0.64815   0.73262   0.07470
C          C       0.34901   0.70682   0.73809   0.07940
C          C       0.68191   0.37266   0.73937  -0.18505
C          C       0.62327   0.31032   0.73257  -0.18780
C          C       0.68422   0.31305   0.71806  -0.17979
C          C       0.31369   0.62663   0.73651  -0.18393
C          C       0.37081   0.68826   0.73189  -0.18053
C          C       0.30904   0.68443   0.74365  -0.18582
C          C       0.74614   0.37669   0.72638   0.05727
C          C       0.61878   0.37076   0.74936   0.05188
C          C       0.62509   0.24828   0.71991   0.05806
C          C       0.24906   0.62022   0.75001   0.05607
C          C       0.37759   0.62952   0.73482   0.05845
C          C       0.36823   0.74944   0.74210   0.05508
C          C       0.76363   0.41191   0.67756  -0.12975
C          C       0.57962   0.34930   0.64468  -0.12373
C          C       0.63897   0.22344   0.64443  -0.12362
C          C       0.22526   0.57788   0.65629  -0.12256
C          C       0.41509   0.64660   0.69556  -0.12673
C          C       0.34717   0.76270   0.65910  -0.12720
C          C       0.80408   0.43397   0.68603  -0.13955
C          C       0.55727   0.36689   0.65471  -0.15533
C          C       0.62088   0.18352   0.64330  -0.14434
C          C       0.18633   0.55439   0.66752  -0.15627
C          C       0.43734   0.62914   0.70189  -0.14623
C          C       0.36504   0.80315   0.66824  -0.15072
C          C       0.82902   0.42182   0.74345   0.20089
C          C       0.57394   0.40743   0.76670   0.20717
C          C       0.58785   0.16629   0.71607   0.19398
C          C       0.16916   0.57270   0.76979   0.20547
C          C       0.42324   0.59364   0.74755   0.19514
C          C       0.40536   0.83185   0.75661   0.20908
C          C       0.81150   0.38617   0.78963  -0.16870
C          C       0.61322   0.42926   0.87128  -0.18630
C          C       0.57335   0.19083   0.78902  -0.17588
C          C       0.19270   0.61504   0.86383  -0.18024
C          C       0.38532   0.57579   0.78323  -0.17068
C          C       0.42668   0.81885   0.83995  -0.18505
C          C       0.77122   0.36440   0.78203  -0.12099
C          C       0.63506   0.41097   0.86323  -0.12312
C          C       0.59179   0.23080   0.79098  -0.12647
C          C       0.23192   0.63823   0.85394  -0.12648
C          C       0.36343   0.59356   0.77765  -0.12113
C          C       0.40822   0.77853   0.83432  -0.11868
C          C       0.89457   0.43751   0.79778   0.05869
C          C       0.56425   0.45995   0.76776   0.06171
C          C       0.54197   0.10726   0.77253   0.06590
C          C       0.10655   0.56100   0.77732   0.05533
C          C       0.43969   0.54878   0.80868   0.06561
C          C       0.45760   0.89342   0.74764   0.06086
C          C       0.93563   0.46226   0.80044  -0.01845
C          C       0.54098   0.47794   0.78250  -0.02443
C          C       0.52751   0.06687   0.77424  -0.00099
C          C       0.06653   0.53789   0.79351  -0.02304
C          C       0.46482   0.53310   0.80754  -0.00855
C          C       0.47486   0.93512   0.75828  -0.00813
C          C       0.45619   0.49727   0.83742  -0.20653
C          C       0.51086   0.96057   0.72295  -0.20390
C          C       0.03748   0.54670   0.76610  -0.19690
C          C       0.55024   0.51444   0.75831  -0.19817
C          C       0.49223   0.04163   0.81511  -0.20020
C          C       0.96507   0.45438   0.83695  -0.20297
C          C       0.48691   0.49023   0.81681  -0.01733
C          C       0.51703   0.99912   0.74071  -0.02221
C          C       0.00069   0.51635   0.78098  -0.02026
C          C       0.51930   0.52129   0.77627  -0.02140
C          C       0.48611   0.00311   0.79535  -0.02203
C          C       0.00194   0.48481   0.82277  -0.01397
S          S       0.49266   0.44695   0.32713   0.13798
S          S       0.55336   0.04410   0.21309   0.13242
S          S       0.95652   0.50895   0.25255   0.12780
S          S       0.50975   0.55430   0.26290   0.13726
S          S       0.44865   0.95921   0.31706   0.13814
S          S       0.05342   0.49616   0.34068   0.13389
S          S       0.49450   0.45209   0.82885   0.13780
S          S       0.55363   0.04340   0.71344   0.13286
S          S       0.95337   0.50766   0.75468   0.13107
S          S       0.51109   0.55876   0.75846   0.13332
S          S       0.44869   0.95859   0.81637   0.14002
S          S       0.04881   0.49245   0.83900   0.13576
N          N       0.87324   0.44718   0.25112  -0.29517
N          N       0.55035   0.41990   0.27387  -0.27864
N          N       0.57342   0.12664   0.21314  -0.30717
N          N       0.13347   0.55060   0.27699  -0.28586
N          N       0.44798   0.57502   0.25329  -0.30475
N          N       0.42257   0.87235   0.26447  -0.28245
N          N       0.86922   0.44628   0.74725  -0.29609
N          N       0.55010   0.42358   0.77413  -0.28165
N          N       0.57334   0.12659   0.71533  -0.30833
N          N       0.13006   0.54776   0.77949  -0.28592
N          N       0.44831   0.57903   0.75203  -0.30685
N          N       0.42149   0.87197   0.76178  -0.28191

