data_crystal

_audit_creation_method 'AiiDA-DDEC plugin'

_cell_length_a        37.15769
_cell_length_b        37.42787
_cell_length_c         8.02529

_cell_angle_alpha     111.93535
_cell_angle_beta     71.12334
_cell_angle_gamma     120.38535

_symmetry_space_group_name_Hall 'P 1'
_symmetry_space_group_name_H-M  'P 1'

loop_
_symmetry_equiv_pos_as_xyz
 'x,y,z'

loop_
_atom_site_label
_atom_site_type_symbol
_atom_site_fract_x
_atom_site_fract_y
_atom_site_fract_z
_atom_site_charge
H          H       0.69649   0.40689   0.23701   0.10231
H          H       0.58537   0.28685   0.22183   0.09994
H          H       0.70380   0.29527   0.23273   0.10068
H          H       0.30199   0.58848   0.24109   0.10143
H          H       0.40894   0.71115   0.23585   0.10351
H          H       0.28440   0.69378   0.25054   0.10199
H          H       0.75832   0.43648   0.19362   0.10670
H          H       0.56887   0.31367   0.06959   0.10247
H          H       0.67430   0.22867   0.03496   0.10634
H          H       0.25114   0.55802   0.03293   0.10129
H          H       0.44409   0.67550   0.11054   0.10719
H          H       0.31432   0.74641   0.14749   0.10556
H          H       0.83494   0.47768   0.19743   0.12002
H          H       0.52439   0.34784   0.09153   0.11827
H          H       0.64366   0.15292   0.04584   0.12315
H          H       0.17392   0.51095   0.03609   0.12051
H          H       0.49001   0.64524   0.10782   0.11911
H          H       0.34469   0.82268   0.15153   0.11719
H          H       0.83604   0.37195   0.28698   0.10696
H          H       0.60670   0.46542   0.41458   0.10441
H          H       0.53583   0.16548   0.42250   0.10794
H          H       0.14667   0.61027   0.45611   0.10150
H          H       0.38340   0.55030   0.36237   0.10779
H          H       0.45458   0.84844   0.33088   0.10698
H          H       0.76032   0.33176   0.29042   0.10803
H          H       0.65013   0.43155   0.39802   0.10414
H          H       0.56695   0.24126   0.41725   0.10116
H          H       0.22350   0.65632   0.45851   0.10555
H          H       0.33774   0.58086   0.37037   0.09951
H          H       0.42450   0.77406   0.33349   0.10443
H          H       0.89375   0.41850   0.35640   0.06451
H          H       0.58404   0.48870   0.28582   0.05956
H          H       0.51117   0.09612   0.20016   0.06533
H          H       0.09940   0.57733   0.23305   0.06119
H          H       0.42223   0.51585   0.17568   0.06276
H          H       0.47986   0.89964   0.23118   0.06182
H          H       0.43062   0.45655   0.16075   0.10501
H          H       0.53410   0.96842   0.28403   0.10560
H          H       0.03243   0.56662   0.20938   0.10355
H          H       0.57428   0.54948   0.32345   0.10230
H          H       0.45303   0.02674   0.16944   0.10559
H          H       0.96212   0.42373   0.33575   0.10465
H          H       0.47218   0.42403   0.18951   0.12030
H          H       0.56767   0.04532   0.28288   0.11908
H          H       0.95409   0.52350   0.22751   0.11668
H          H       0.53268   0.58213   0.29582   0.11667
H          H       0.41916   0.94973   0.17218   0.12239
H          H       0.04071   0.46561   0.30556   0.12004
H          H       0.69613   0.41072   0.74026   0.10492
H          H       0.58909   0.28719   0.71570   0.10012
H          H       0.71120   0.30171   0.71155   0.10006
H          H       0.30286   0.59242   0.74835   0.10072
H          H       0.41353   0.71207   0.73222   0.10327
H          H       0.29078   0.70136   0.76266   0.10323
H          H       0.76039   0.43979   0.65948   0.10306
H          H       0.57003   0.31262   0.56651   0.09674
H          H       0.68215   0.23350   0.51428   0.10352
H          H       0.25344   0.56513   0.54099   0.10380
H          H       0.44571   0.67468   0.60268   0.10761
H          H       0.32366   0.75410   0.65646   0.10848
H          H       0.83633   0.48424   0.67522   0.11911
H          H       0.52388   0.34429   0.58115   0.11815
H          H       0.65395   0.15804   0.52365   0.11993
H          H       0.17621   0.51959   0.54186   0.12104
H          H       0.49086   0.64414   0.60606   0.12215
H          H       0.35708   0.83094   0.66298   0.11730
H          H       0.83918   0.38561   0.81571   0.10746
H          H       0.60150   0.46290   0.91725   0.10380
H          H       0.54667   0.16827   0.91486   0.10865
H          H       0.15051   0.61816   0.97508   0.10470
H          H       0.38297   0.55053   0.86301   0.10535
H          H       0.46573   0.85000   0.83069   0.10699
H          H       0.76389   0.34293   0.81270   0.10740
H          H       0.64634   0.43128   0.90830   0.10603
H          H       0.57520   0.24366   0.90874   0.09826
H          H       0.22744   0.66245   0.98135   0.10437
H          H       0.33828   0.58206   0.86847   0.09999
H          H       0.43205   0.77546   0.83557   0.10145
H          H       0.89883   0.42665   0.83031   0.06580
H          H       0.58061   0.48464   0.77507   0.05758
H          H       0.52182   0.09927   0.69945   0.06574
H          H       0.10352   0.58880   0.74602   0.06142
H          H       0.42083   0.51578   0.67600   0.06274
H          H       0.49120   0.90685   0.77508   0.06008
H          H       0.42805   0.45540   0.65330   0.10447
H          H       0.54660   0.97538   0.80721   0.10434
H          H       0.03656   0.57798   0.70950   0.10423
H          H       0.57154   0.54501   0.81872   0.10344
H          H       0.46582   0.02956   0.66286   0.10443
H          H       0.96551   0.43352   0.82085   0.10611
H          H       0.46854   0.42073   0.67450   0.12033
H          H       0.57995   0.05166   0.79483   0.11890
H          H       0.95826   0.53490   0.72273   0.11328
H          H       0.53070   0.57969   0.80122   0.11721
H          H       0.43247   0.95324   0.67466   0.12011
H          H       0.04392   0.47559   0.79796   0.11897
C          C       0.70657   0.35474   0.23549   0.07505
C          C       0.63840   0.34935   0.22793   0.08185
C          C       0.64276   0.28620   0.22525   0.07662
C          C       0.28848   0.63836   0.24639   0.07646
C          C       0.35900   0.64808   0.24185   0.08307
C          C       0.34916   0.70833   0.24204   0.07654
C          C       0.68186   0.37321   0.23426  -0.18208
C          C       0.61915   0.30572   0.22408  -0.18150
C          C       0.68621   0.31093   0.22968  -0.18334
C          C       0.31538   0.62201   0.24279  -0.18941
C          C       0.37519   0.69092   0.23964  -0.17956
C          C       0.30557   0.68152   0.24847  -0.18644
C          C       0.75238   0.38045   0.24278   0.05653
C          C       0.61315   0.36997   0.23104   0.05942
C          C       0.62296   0.24064   0.22540   0.05729
C          C       0.24281   0.61064   0.24513   0.05566
C          C       0.38691   0.63040   0.23959   0.05519
C          C       0.36710   0.75342   0.23736   0.06062
C          C       0.77467   0.42232   0.21935  -0.12502
C          C       0.57698   0.34677   0.14762  -0.13197
C          C       0.64426   0.21503   0.12225  -0.12217
C          C       0.22820   0.56922   0.12761  -0.12569
C          C       0.43050   0.64841   0.16861  -0.12296
C          C       0.34487   0.76858   0.19028  -0.13228
C          C       0.81796   0.44574   0.21976  -0.14994
C          C       0.55196   0.36562   0.15872  -0.14431
C          C       0.62722   0.17266   0.12661  -0.15757
C          C       0.18518   0.54288   0.12780  -0.15749
C          C       0.45654   0.63135   0.16483  -0.15236
C          C       0.36177   0.81138   0.19097  -0.14553
C          C       0.84133   0.42857   0.24450   0.19651
C          C       0.56262   0.40898   0.25098   0.20498
C          C       0.58726   0.15373   0.23024   0.20421
C          C       0.15517   0.55765   0.24319   0.20562
C          C       0.43987   0.59468   0.22780   0.19622
C          C       0.40219   0.84102   0.23565   0.19533
C          C       0.81933   0.38665   0.26792  -0.16976
C          C       0.59881   0.43244   0.33510  -0.17648
C          C       0.56570   0.17909   0.33415  -0.18116
C          C       0.16960   0.59914   0.36091  -0.18236
C          C       0.39636   0.57662   0.30015  -0.17684
C          C       0.42442   0.82617   0.28464  -0.16942
C          C       0.77608   0.36357   0.26804  -0.12280
C          C       0.62339   0.41325   0.32540  -0.11993
C          C       0.58343   0.22180   0.33139  -0.12759
C          C       0.21272   0.62495   0.36222  -0.12219
C          C       0.37071   0.59430   0.30602  -0.12395
C          C       0.40719   0.78360   0.28577  -0.12008
C          C       0.90748   0.44556   0.29589   0.07418
C          C       0.55102   0.46608   0.26847   0.06144
C          C       0.53194   0.08550   0.21948   0.06565
C          C       0.08712   0.54447   0.24357   0.06909
C          C       0.45395   0.53932   0.20870   0.06645
C          C       0.45665   0.90947   0.22957   0.06113
C          C       0.95310   0.47108   0.28331   0.05930
C          C       0.52562   0.48454   0.25884   0.06373
C          C       0.51263   0.04097   0.22607   0.05155
C          C       0.04149   0.51870   0.25616   0.05861
C          C       0.47909   0.52159   0.22669   0.06335
C          C       0.47438   0.95406   0.22779   0.05800
C          C       0.46199   0.47682   0.19813  -0.12927
C          C       0.51656   0.98127   0.25728  -0.13218
C          C       0.01684   0.53517   0.23616  -0.12943
C          C       0.54274   0.52932   0.28774  -0.13207
C          C       0.47044   0.01385   0.19683  -0.12762
C          C       0.97771   0.45485   0.30599  -0.12610
C          C       0.48475   0.45851   0.21388  -0.10739
C          C       0.53542   0.02408   0.25733  -0.10869
C          C       0.97333   0.51153   0.24676  -0.10508
C          C       0.51986   0.54767   0.27300  -0.10622
C          C       0.45139   0.97101   0.19819  -0.11003
C          C       0.02137   0.47797   0.29008  -0.10803
C          C       0.70983   0.35996   0.72630   0.07335
C          C       0.63972   0.35117   0.72638   0.08030
C          C       0.64839   0.28957   0.71229   0.07991
C          C       0.29212   0.64422   0.75606   0.07794
C          C       0.36162   0.65026   0.74252   0.08159
C          C       0.35495   0.71263   0.74680   0.07640
C          C       0.68312   0.37687   0.73192  -0.18286
C          C       0.62273   0.30751   0.71758  -0.18270
C          C       0.69172   0.31598   0.71464  -0.18204
C          C       0.31771   0.62600   0.74857  -0.18452
C          C       0.37952   0.69326   0.73984  -0.17938
C          C       0.31092   0.68756   0.75735  -0.18683
C          C       0.75544   0.38735   0.73457   0.06241
C          C       0.61243   0.36982   0.73220   0.06277
C          C       0.63048   0.24402   0.70947   0.05507
C          C       0.24612   0.61758   0.75819   0.05517
C          C       0.38837   0.63110   0.73736   0.05555
C          C       0.37508   0.75809   0.74381   0.06331
C          C       0.77701   0.42802   0.69894  -0.12735
C          C       0.57678   0.34545   0.64514  -0.12894
C          C       0.65250   0.21927   0.60257  -0.12360
C          C       0.23086   0.57662   0.63741  -0.12885
C          C       0.43189   0.64821   0.66476  -0.12266
C          C       0.35438   0.77514   0.69892  -0.13346
C          C       0.82004   0.45312   0.70512  -0.14953
C          C       0.55083   0.36291   0.65238  -0.14917
C          C       0.63682   0.17702   0.60635  -0.15732
C          C       0.18777   0.55112   0.63635  -0.15270
C          C       0.45738   0.63086   0.66352  -0.15995
C          C       0.37308   0.81821   0.70073  -0.13634
C          C       0.84391   0.43865   0.74488   0.19256
C          C       0.55997   0.40598   0.74493   0.20272
C          C       0.59772   0.15754   0.71413   0.20378
C          C       0.15820   0.56641   0.75315   0.20295
C          C       0.43998   0.59454   0.72947   0.20069
C          C       0.41392   0.84620   0.74383   0.19431
C          C       0.82242   0.39797   0.78090  -0.16590
C          C       0.59515   0.43034   0.83574  -0.17474
C          C       0.57557   0.18213   0.82218  -0.17904
C          C       0.17317   0.60702   0.87697  -0.18548
C          C       0.39640   0.57690   0.80061  -0.17536
C          C       0.43484   0.82934   0.78928  -0.17172
C          C       0.77941   0.37335   0.77722  -0.12791
C          C       0.62062   0.41250   0.82981  -0.12517
C          C       0.59182   0.22459   0.81921  -0.12295
C          C       0.21641   0.63192   0.87997  -0.12424
C          C       0.37134   0.59504   0.80485  -0.12473
C          C       0.41573   0.78657   0.79043  -0.12040
C          C       0.91119   0.45572   0.78518   0.06675
C          C       0.54764   0.46196   0.75731   0.06680
C          C       0.54361   0.08940   0.71532   0.06803
C          C       0.09085   0.55525   0.74884   0.06481
C          C       0.45260   0.53845   0.71005   0.06678
C          C       0.46924   0.91538   0.75174   0.06085
C          C       0.95675   0.48171   0.77426   0.06161
C          C       0.52237   0.48068   0.74925   0.06262
C          C       0.52507   0.04549   0.72838   0.05061
C          C       0.04528   0.52950   0.75367   0.05457
C          C       0.47696   0.51971   0.72588   0.06193
C          C       0.48733   0.95944   0.74191   0.05561
C          C       0.45934   0.47477   0.69190  -0.13063
C          C       0.52922   0.98742   0.77404  -0.13191
C          C       0.02082   0.54623   0.73349  -0.13173
C          C       0.53997   0.52563   0.78312  -0.13547
C          C       0.48317   0.01756   0.69653  -0.12631
C          C       0.98126   0.46501   0.79436  -0.12500
C          C       0.48153   0.45537   0.70353  -0.10651
C          C       0.54791   0.02983   0.76763  -0.10774
C          C       0.97730   0.52260   0.74134  -0.10403
C          C       0.51762   0.54505   0.77335  -0.10340
C          C       0.46446   0.97513   0.70270  -0.11016
C          C       0.02484   0.48821   0.78216  -0.10442
N          N       0.88495   0.45443   0.23795  -0.30155
N          N       0.53632   0.42548   0.24974  -0.28468
N          N       0.57141   0.11089   0.22974  -0.27718
N          N       0.11218   0.52985   0.24177  -0.27543
N          N       0.46759   0.57982   0.22862  -0.28068
N          N       0.41694   0.88328   0.22948  -0.28492
N          N       0.88740   0.46580   0.74190  -0.30145
N          N       0.53316   0.42145   0.73960  -0.28413
N          N       0.58335   0.11516   0.71638  -0.28108
N          N       0.11517   0.53970   0.74619  -0.27350
N          N       0.46707   0.57912   0.73169  -0.28182
N          N       0.43031   0.88851   0.73451  -0.28747

