data_crystal

_audit_creation_method 'AiiDA-DDEC plugin'

_cell_length_a        44.75327
_cell_length_b        44.63379
_cell_length_c         8.01391

_cell_angle_alpha     72.68493
_cell_angle_beta     114.20070
_cell_angle_gamma     120.34621

_symmetry_space_group_name_Hall 'P 1'
_symmetry_space_group_name_H-M  'P 1'

loop_
_symmetry_equiv_pos_as_xyz
 'x,y,z'

loop_
_atom_site_label
_atom_site_type_symbol
_atom_site_fract_x
_atom_site_fract_y
_atom_site_fract_z
_atom_site_charge
H          H       0.26144   0.67609   0.28254   0.10348
H          H       0.33076   0.57773   0.32862   0.10668
H          H       0.42245   0.73856   0.41608   0.10368
H          H       0.75507   0.32801   0.41833   0.10591
H          H       0.68160   0.41515   0.35841   0.09914
H          H       0.57819   0.25580   0.23202   0.10422
H          H       0.19637   0.64752   0.26387   0.11570
H          H       0.35966   0.54202   0.33816   0.11865
H          H       0.45966   0.80286   0.41469   0.12057
H          H       0.81867   0.35311   0.41536   0.11761
H          H       0.65219   0.45098   0.34123   0.11860
H          H       0.54476   0.19185   0.23084   0.11692
H          H       0.18039   0.55786   0.08033   0.10776
H          H       0.43470   0.63085   0.08529   0.10570
H          H       0.37080   0.81866   0.98048   0.10181
H          H       0.80397   0.43774   0.01952   0.10565
H          H       0.55065   0.38007   0.00564   0.10045
H          H       0.63390   0.19095   0.15564   0.10602
H          H       0.24386   0.58648   0.08877   0.10289
H          H       0.40624   0.66625   0.07441   0.09965
H          H       0.33402   0.75452   0.97724   0.10470
H          H       0.74079   0.41308   0.02328   0.09929
H          H       0.58018   0.34527   0.01437   0.10313
H          H       0.66681   0.25395   0.15171   0.10333
H          H       0.13663   0.53461   0.17864   0.06019
H          H       0.46345   0.60101   0.20342   0.05701
H          H       0.39930   0.86119   0.20209   0.06144
H          H       0.86316   0.46180   0.21924   0.06297
H          H       0.53459   0.39768   0.18526   0.05759
H          H       0.59493   0.14142   0.08715   0.06580
H          H       0.09372   0.58513   0.21969   0.12017
H          H       0.41268   0.50222   0.23160   0.11885
H          H       0.49323   0.90932   0.14830   0.11712
H          H       0.90389   0.41179   0.15030   0.11592
H          H       0.58179   0.49614   0.14095   0.11816
H          H       0.50598   0.09296   0.19340   0.11534
H          H       0.07832   0.48665   0.14054   0.10557
H          H       0.50902   0.59485   0.17069   0.10410
H          H       0.40768   0.91724   0.22183   0.10705
H          H       0.92041   0.51022   0.23627   0.10735
H          H       0.48534   0.40335   0.19813   0.10147
H          H       0.58992   0.08546   0.10108   0.10694
H          H       0.04329   0.58974   0.25100   0.11578
H          H       0.40770   0.44370   0.23754   0.10985
H          H       0.54927   0.96320   0.11383   0.11447
H          H       0.95425   0.40729   0.11251   0.11786
H          H       0.58597   0.55468   0.12494   0.11162
H          H       0.44967   0.03919   0.22399   0.11519
H          H       0.01783   0.43439   0.11033   0.11135
H          H       0.55949   0.59073   0.13610   0.10676
H          H       0.41388   0.97502   0.23487   0.11005
H          H       0.97944   0.56258   0.25171   0.11079
H          H       0.43398   0.40749   0.22442   0.10537
H          H       0.58459   0.02748   0.09665   0.11220
H          H       0.30528   0.70350   0.18521   0.10080
H          H       0.29736   0.60316   0.18799   0.10311
H          H       0.39813   0.69556   0.20482   0.10064
H          H       0.69714   0.30124   0.21036   0.10083
H          H       0.70312   0.40016   0.20599   0.10047
H          H       0.60244   0.30751   0.18550   0.10306
H          H       0.26242   0.67289   0.77984   0.10732
H          H       0.33428   0.57705   0.81519   0.10707
H          H       0.42218   0.73734   0.90838   0.10298
H          H       0.75574   0.32739   0.90493   0.10533
H          H       0.68189   0.41230   0.85639   0.09629
H          H       0.58039   0.25379   0.74155   0.10503
H          H       0.19754   0.64446   0.76328   0.11666
H          H       0.36538   0.54346   0.82469   0.12061
H          H       0.45821   0.80172   0.91022   0.11995
H          H       0.81974   0.35425   0.90401   0.11733
H          H       0.65350   0.44908   0.83967   0.11912
H          H       0.54698   0.18999   0.74194   0.11716
H          H       0.18123   0.55457   0.58022   0.10349
H          H       0.44060   0.63515   0.58680   0.10678
H          H       0.36783   0.81619   0.48381   0.10331
H          H       0.80436   0.44035   0.52574   0.10641
H          H       0.55103   0.37856   0.50623   0.09995
H          H       0.63464   0.18923   0.64951   0.10632
H          H       0.24467   0.58296   0.58833   0.10224
H          H       0.40955   0.66832   0.57298   0.09872
H          H       0.33224   0.75208   0.47758   0.10447
H          H       0.74061   0.41346   0.52488   0.09820
H          H       0.57959   0.34295   0.51423   0.10285
H          H       0.66704   0.25241   0.63965   0.10359
H          H       0.13561   0.53177   0.66246   0.06130
H          H       0.47056   0.60623   0.69641   0.05867
H          H       0.39660   0.85882   0.70592   0.06171
H          H       0.86439   0.46417   0.71829   0.06381
H          H       0.53541   0.39782   0.67560   0.05564
H          H       0.59515   0.13898   0.58513   0.06450
H          H       0.09566   0.58366   0.71816   0.11902
H          H       0.41946   0.50812   0.72498   0.11815
H          H       0.49069   0.90627   0.65668   0.11975
H          H       0.90366   0.41301   0.64841   0.11587
H          H       0.58562   0.49608   0.63924   0.11978
H          H       0.50660   0.09196   0.69231   0.11599
H          H       0.07675   0.48437   0.62819   0.10564
H          H       0.51691   0.59909   0.66268   0.10452
H          H       0.40520   0.91612   0.72038   0.10650
H          H       0.92274   0.51228   0.73890   0.10659
H          H       0.48745   0.40516   0.69243   0.10224
H          H       0.58964   0.08204   0.60331   0.10873
H          H       0.04618   0.58965   0.75294   0.11577
H          H       0.41284   0.44885   0.73440   0.11082
H          H       0.54675   0.95914   0.62122   0.11399
H          H       0.95272   0.40721   0.60744   0.11712
H          H       0.59149   0.55536   0.62145   0.11043
H          H       0.44969   0.03889   0.72111   0.11227
H          H       0.01598   0.43320   0.60064   0.10900
H          H       0.56657   0.59310   0.63084   0.10809
H          H       0.41274   0.97474   0.73301   0.11265
H          H       0.98283   0.56391   0.75618   0.11228
H          H       0.43750   0.41120   0.72194   0.10560
H          H       0.58318   0.02350   0.60287   0.11327
H          H       0.30468   0.70020   0.68080   0.10252
H          H       0.29993   0.60108   0.68825   0.10343
H          H       0.39885   0.69559   0.69515   0.10217
H          H       0.69805   0.30017   0.70414   0.09956
H          H       0.70266   0.39840   0.70149   0.09918
H          H       0.60267   0.30507   0.68121   0.10156
C          C       0.25819   0.63362   0.18817   0.05518
C          C       0.36619   0.62494   0.19995   0.05858
C          C       0.37547   0.74181   0.19676   0.05528
C          C       0.74302   0.36855   0.21988   0.05931
C          C       0.63306   0.37697   0.19075   0.05828
C          C       0.62560   0.26075   0.19142   0.05942
C          C       0.24370   0.65047   0.23433  -0.12724
C          C       0.35305   0.58941   0.27155  -0.12799
C          C       0.41122   0.75606   0.31869  -0.12752
C          C       0.76564   0.35196   0.32962  -0.12698
C          C       0.65294   0.40746   0.27926  -0.12949
C          C       0.59053   0.24214   0.21118  -0.12661
C          C       0.20724   0.63453   0.22543  -0.14547
C          C       0.36927   0.56924   0.27909  -0.14578
C          C       0.43213   0.79199   0.31946  -0.15918
C          C       0.80132   0.36596   0.32955  -0.15304
C          C       0.63668   0.42769   0.27053  -0.14947
C          C       0.57145   0.20604   0.21152  -0.14836
C          C       0.18371   0.60055   0.17438   0.19652
C          C       0.39943   0.58365   0.21635   0.19503
C          C       0.41760   0.81506   0.20011   0.20653
C          C       0.81604   0.39762   0.22179   0.20028
C          C       0.59927   0.41774   0.17603   0.20611
C          C       0.58615   0.18653   0.19046   0.19380
C          C       0.19808   0.58344   0.12906  -0.17413
C          C       0.41271   0.61923   0.14446  -0.17457
C          C       0.38179   0.80102   0.07831  -0.18484
C          C       0.79365   0.41442   0.11211  -0.17558
C          C       0.57916   0.38729   0.08674  -0.18208
C          C       0.62128   0.20487   0.17152  -0.16816
C          C       0.23430   0.59972   0.13478  -0.11797
C          C       0.39637   0.63926   0.13711  -0.12575
C          C       0.36122   0.76498   0.07647  -0.12257
C          C       0.75792   0.40017   0.11276  -0.12822
C          C       0.59584   0.36759   0.09278  -0.12079
C          C       0.64018   0.24092   0.17112  -0.12100
C          C       0.12712   0.55321   0.17628   0.07078
C          C       0.44476   0.57292   0.20827   0.08078
C          C       0.42707   0.87149   0.19640   0.07546
C          C       0.87210   0.44351   0.21130   0.07737
C          C       0.55174   0.42612   0.17455   0.07182
C          C       0.57199   0.13091   0.14031   0.07082
C          C       0.08967   0.53767   0.17844   0.05677
C          C       0.45918   0.55059   0.20143   0.06464
C          C       0.44849   0.90944   0.18659   0.05700
C          C       0.90853   0.45921   0.19510   0.05486
C          C       0.53551   0.44773   0.17160   0.06621
C          C       0.55011   0.09307   0.14729   0.06314
C          C       0.07575   0.55771   0.20094  -0.16280
C          C       0.43944   0.51404   0.21460  -0.15676
C          C       0.48298   0.92562   0.16278  -0.15875
C          C       0.92189   0.43929   0.16663  -0.16061
C          C       0.55492   0.48431   0.15639  -0.15218
C          C       0.51600   0.07679   0.17560  -0.15923
C          C       0.03998   0.54259   0.20448   0.07798
C          C       0.45404   0.49319   0.20846   0.07581
C          C       0.50355   0.96194   0.15476   0.07409
C          C       0.95742   0.45441   0.15902   0.07826
C          C       0.54009   0.50507   0.16036   0.07815
C          C       0.49526   0.04049   0.18136   0.07429
C          C       0.01693   0.50635   0.18010   0.00035
C          C       0.48949   0.50942   0.18802   0.00223
C          C       0.48907   0.98278   0.17079   0.00097
C          C       0.98046   0.49071   0.18183   0.00033
C          C       0.50469   0.48872   0.18150  -0.00039
C          C       0.50955   0.01968   0.16319  -0.00103
C          C       0.03098   0.48588   0.15682   0.07483
C          C       0.50948   0.54668   0.17298   0.07586
C          C       0.45396   0.96639   0.19466   0.07854
C          C       0.96663   0.51117   0.20701   0.07398
C          C       0.48464   0.45146   0.19501   0.07735
C          C       0.54444   0.03613   0.13665   0.07493
C          C       0.06735   0.50196   0.15873  -0.18590
C          C       0.49394   0.56646   0.18122  -0.18249
C          C       0.43427   0.92990   0.20157  -0.18840
C          C       0.93078   0.49496   0.21247  -0.18386
C          C       0.50048   0.43173   0.18852  -0.18909
C          C       0.56379   0.07264   0.12638  -0.18314
C          C       0.02539   0.56237   0.23043  -0.13021
C          C       0.43453   0.45581   0.22102  -0.13128
C          C       0.53875   0.97917   0.12914  -0.13254
C          C       0.97203   0.43470   0.13231  -0.13645
C          C       0.55938   0.54249   0.14427  -0.12787
C          C       0.46004   0.02326   0.20667  -0.13219
C          C       0.00728   0.44970   0.13217  -0.13886
C          C       0.54464   0.56237   0.14979  -0.13727
C          C       0.44025   0.98781   0.21242  -0.13875
C          C       0.99015   0.54741   0.23025  -0.14031
C          C       0.44916   0.43584   0.21461  -0.14165
C          C       0.55826   0.01469   0.11965  -0.13583
C          C       0.29642   0.65091   0.18872   0.07641
C          C       0.34946   0.64660   0.19479   0.08042
C          C       0.35383   0.70357   0.19354   0.07614
C          C       0.70444   0.35225   0.21224   0.07761
C          C       0.65068   0.35604   0.19615   0.07924
C          C       0.64676   0.29908   0.19667   0.07257
C          C       0.31723   0.68734   0.18733  -0.18613
C          C       0.31303   0.63125   0.19007  -0.17970
C          C       0.36966   0.68297   0.19838  -0.18692
C          C       0.68379   0.31604   0.20831  -0.18254
C          C       0.68749   0.37200   0.20513  -0.18218
C          C       0.63083   0.31972   0.19140  -0.18035
C          C       0.25909   0.63040   0.68545   0.05856
C          C       0.36937   0.62545   0.69281   0.05856
C          C       0.37462   0.74002   0.69216   0.05546
C          C       0.74327   0.36824   0.71323   0.05821
C          C       0.63295   0.37465   0.68792   0.05833
C          C       0.62671   0.25894   0.68960   0.05925
C          C       0.24464   0.64728   0.73176  -0.13232
C          C       0.35714   0.58981   0.76166  -0.12173
C          C       0.41040   0.75459   0.81322  -0.12695
C          C       0.76625   0.35194   0.82003  -0.12345
C          C       0.65332   0.40510   0.77695  -0.12740
C          C       0.59227   0.24018   0.71626  -0.12839
C          C       0.20825   0.63145   0.72370  -0.14212
C          C       0.37467   0.57088   0.76952  -0.14798
C          C       0.43065   0.79051   0.81565  -0.15540
C          C       0.80212   0.36696   0.82143  -0.15319
C          C       0.63765   0.42578   0.76867  -0.15117
C          C       0.57326   0.20407   0.71798  -0.14937
C          C       0.18459   0.59750   0.67234   0.19557
C          C       0.40559   0.58682   0.71135   0.19549
C          C       0.41540   0.81321   0.69896   0.20345
C          C       0.81670   0.39940   0.71862   0.20207
C          C       0.60033   0.41628   0.67386   0.20698
C          C       0.58753   0.18458   0.69282   0.19686
C          C       0.19892   0.58028   0.62738  -0.17078
C          C       0.41808   0.62252   0.64277  -0.17654
C          C       0.37948   0.79883   0.57882  -0.18302
C          C       0.79407   0.41614   0.61344  -0.17681
C          C       0.57959   0.38564   0.58584  -0.18181
C          C       0.62220   0.20306   0.66799  -0.17231
C          C       0.23517   0.59641   0.63321  -0.12024
C          C       0.40022   0.64121   0.63370  -0.12450
C          C       0.35956   0.76279   0.57538  -0.12374
C          C       0.75805   0.40074   0.61179  -0.12532
C          C       0.59571   0.36544   0.59165  -0.12088
C          C       0.64093   0.23921   0.66504  -0.12001
C          C       0.12718   0.55065   0.66806   0.06947
C          C       0.45227   0.57802   0.70223   0.07529
C          C       0.42430   0.86935   0.69859   0.07341
C          C       0.87302   0.44567   0.70993   0.07410
C          C       0.55346   0.42610   0.66881   0.07340
C          C       0.57265   0.12872   0.64129   0.07495
C          C       0.08995   0.53574   0.67226   0.05867
C          C       0.46662   0.55566   0.69500   0.06770
C          C       0.44588   0.90728   0.68973   0.05781
C          C       0.90954   0.46090   0.69538   0.05759
C          C       0.53829   0.44855   0.66662   0.06520
C          C       0.55036   0.09087   0.64843   0.06171
C          C       0.07708   0.55634   0.69884  -0.16481
C          C       0.44616   0.51918   0.70848  -0.15137
C          C       0.48056   0.92291   0.66864  -0.16295
C          C       0.92220   0.44038   0.66644  -0.16378
C          C       0.55872   0.48501   0.65318  -0.15255
C          C       0.51623   0.07525   0.67606  -0.15779
C          C       0.04149   0.54200   0.70385   0.07927
C          C       0.45982   0.49757   0.70250   0.07393
C          C       0.50157   0.95916   0.66026   0.07624
C          C       0.95760   0.45480   0.65833   0.07661
C          C       0.54479   0.50667   0.65606   0.07520
C          C       0.49493   0.03897   0.68232   0.07189
C          C       0.01766   0.50587   0.67878  -0.00295
C          C       0.49515   0.51289   0.68182   0.00065
C          C       0.48759   0.98060   0.67461  -0.00100
C          C       0.98138   0.49097   0.68226   0.00117
C          C       0.50942   0.49131   0.67604   0.00140
C          C       0.50869   0.01749   0.66619   0.00121
C          C       0.03068   0.48483   0.65191   0.07609
C          C       0.51592   0.55008   0.66649   0.07858
C          C       0.45235   0.96476   0.69653   0.07842
C          C       0.96836   0.51202   0.70921   0.07456
C          C       0.48854   0.45411   0.69018   0.07822
C          C       0.54359   0.03329   0.64023   0.07485
C          C       0.06678   0.50019   0.65049  -0.18833
C          C       0.50122   0.57075   0.67399  -0.19223
C          C       0.43197   0.92826   0.70248  -0.18889
C          C       0.93250   0.49654   0.71416  -0.18548
C          C       0.50330   0.43348   0.68305  -0.18971
C          C       0.56349   0.06983   0.62836  -0.18355
C          C       0.02776   0.56238   0.73184  -0.13101
C          C       0.43949   0.46024   0.71668  -0.12753
C          C       0.53677   0.97569   0.63550  -0.13178
C          C       0.97119   0.43448   0.62860  -0.13325
C          C       0.56492   0.54401   0.63976  -0.13128
C          C       0.45959   0.02234   0.70587  -0.12718
C          C       0.00621   0.44881   0.62617  -0.13738
C          C       0.55106   0.56479   0.64452  -0.14239
C          C       0.43923   0.98691   0.71241  -0.14275
C          C       0.99269   0.54812   0.73308  -0.14013
C          C       0.45327   0.43948   0.71096  -0.13868
C          C       0.55683   0.01117   0.62532  -0.13749
C          C       0.29732   0.64814   0.68500   0.07593
C          C       0.35124   0.64574   0.68847   0.08115
C          C       0.35379   0.70182   0.68749   0.07651
C          C       0.70463   0.35101   0.70544   0.07864
C          C       0.65054   0.35389   0.69165   0.08165
C          C       0.64747   0.29735   0.69223   0.07244
C          C       0.31725   0.68466   0.68229  -0.18466
C          C       0.31484   0.62929   0.68690  -0.17801
C          C       0.37047   0.68215   0.69098  -0.18798
C          C       0.68444   0.31472   0.70222  -0.18175
C          C       0.68731   0.37025   0.69977  -0.18331
C          C       0.63107   0.31759   0.68668  -0.18039
N          N       0.14771   0.58650   0.17417  -0.28547
N          N       0.41264   0.56080   0.22052  -0.29348
N          N       0.44004   0.85103   0.20215  -0.27763
N          N       0.85166   0.41021   0.22055  -0.28160
N          N       0.58481   0.43939   0.17289  -0.27636
N          N       0.56449   0.15027   0.19367  -0.29996
N          N       0.14870   0.58369   0.67325  -0.28682
N          N       0.42008   0.56516   0.71533  -0.28814
N          N       0.43736   0.84918   0.70158  -0.27490
N          N       0.85237   0.41242   0.71747  -0.28048
N          N       0.58661   0.43855   0.67052  -0.27888
N          N       0.56586   0.14827   0.69763  -0.30112

