data_crystal

_audit_creation_method 'AiiDA-DDEC plugin'

_cell_length_a        44.58646
_cell_length_b        44.18237
_cell_length_c         8.03722

_cell_angle_alpha     87.76429
_cell_angle_beta     66.06973
_cell_angle_gamma     119.91374

_symmetry_space_group_name_Hall 'P 1'
_symmetry_space_group_name_H-M  'P 1'

loop_
_symmetry_equiv_pos_as_xyz
 'x,y,z'

loop_
_atom_site_label
_atom_site_type_symbol
_atom_site_fract_x
_atom_site_fract_y
_atom_site_fract_z
_atom_site_charge
H          H       0.70804   0.40019   0.27342   0.10238
H          H       0.61822   0.30198   0.24193   0.10059
H          H       0.71328   0.30587   0.27656   0.09682
H          H       0.31571   0.60517   0.23278   0.10067
H          H       0.41104   0.70395   0.22112   0.09875
H          H       0.30859   0.69832   0.26783   0.10339
H          H       0.77137   0.42861   0.10760   0.10887
H          H       0.59963   0.32848   0.17647   0.10529
H          H       0.70385   0.26848   0.10296   0.10532
H          H       0.27681   0.58996   0.13015   0.09297
H          H       0.44387   0.67974   0.99363   0.10502
H          H       0.33786   0.75130   0.21237   0.10862
H          H       0.83667   0.46471   0.09407   0.11497
H          H       0.56287   0.35571   0.18180   0.11837
H          H       0.67570   0.20526   0.07836   0.11626
H          H       0.21019   0.55383   0.15640   0.11861
H          H       0.47891   0.65055   0.00343   0.11845
H          H       0.36600   0.81414   0.23525   0.12288
H          H       0.81367   0.36641   0.39358   0.10354
H          H       0.63611   0.44478   0.33504   0.10529
H          H       0.55881   0.18332   0.35362   0.10103
H          H       0.18278   0.62589   0.42051   0.10402
H          H       0.36897   0.55675   0.45274   0.10315
H          H       0.45193   0.80986   0.33331   0.10543
H          H       0.74761   0.33078   0.41907   0.09971
H          H       0.67200   0.41771   0.33496   0.10367
H          H       0.58617   0.24515   0.38855   0.10503
H          H       0.24807   0.66118   0.39811   0.10295
H          H       0.33431   0.58595   0.44444   0.10052
H          H       0.42297   0.74710   0.32115   0.10310
H          H       0.88193   0.40203   0.19309   0.07404
H          H       0.61123   0.46819   0.26021   0.07398
H          H       0.55419   0.14616   0.16242   0.07688
H          H       0.14034   0.60356   0.31764   0.07112
H          H       0.40588   0.53432   0.24641   0.07759
H          H       0.46777   0.86131   0.36472   0.07509
H          H       0.94654   0.41621   0.19504   0.11811
H          H       0.59403   0.51649   0.26904   0.13163
H          H       0.50158   0.08007   0.17869   0.11570
H          H       0.07295   0.58639   0.33064   0.12408
H          H       0.41814   0.48279   0.25657   0.11671
H          H       0.51888   0.92821   0.35410   0.12336
H          H       0.46757   0.04522   0.05064   0.06022
H          H       0.00474   0.42727   0.02450   0.06146
H          H       0.58213   0.58913  -0.00408   0.06161
H          H       0.58902   0.00114   0.02218   0.07005
H          H       0.00617   0.57749   0.05735   0.06397
H          H       0.42797   0.44601   0.10482   0.06262
H          H       0.43960   0.03756   0.30042   0.05284
H          H       0.97871   0.39462   0.25284   0.05632
H          H       0.61338   0.57538  -0.00260   0.05760
H          H       0.58990   0.97330   0.18313   0.05649
H          H       0.05139   0.59844   0.06711   0.05870
H          H       0.39376   0.42590   0.35583   0.05358
H          H       0.37778   0.98687   0.30971   0.13130
H          H       0.04115   0.39659   0.17184   0.12791
H          H       0.63922   0.62269   0.16058   0.12753
H          H       0.64653   0.03047   0.18636   0.12770
H          H       0.02900   0.62946   0.29580   0.12579
H          H       0.38411   0.36532   0.33339   0.12950
H          H       0.40538   0.99298   0.06380   0.14113
H          H       0.06550   0.42838   0.94426   0.14335
H          H       0.60810   0.63625   0.15523   0.13727
H          H       0.64634   0.05757   0.01832   0.13447
H          H       0.98304   0.60731   0.29579   0.14024
H          H       0.41868   0.38560   0.08350   0.13283
H          H       0.39923   0.02816   0.13661   0.12604
H          H       0.02471   0.38257   0.00352   0.12639
H          H       0.64782   0.64358   0.93776   0.12876
H          H       0.65936   0.02594   0.95271   0.12603
H          H       0.02792   0.64061   0.08417   0.12704
H          H       0.37267   0.38134   0.17595   0.12867
H          H       0.68208   0.39222   0.76658   0.10227
H          H       0.59042   0.29271   0.75270   0.09902
H          H       0.68718   0.29800   0.77575   0.10104
H          H       0.29180   0.59577   0.73775   0.10000
H          H       0.38401   0.69586   0.73438   0.10245
H          H       0.28110   0.68710   0.76714   0.10203
H          H       0.74510   0.42167   0.59890   0.10546
H          H       0.56593   0.31725   0.72773   0.10428
H          H       0.67690   0.25982   0.62042   0.10218
H          H       0.25558   0.58066   0.61615   0.10038
H          H       0.41997   0.67672   0.51847   0.10354
H          H       0.31358   0.74362   0.69490   0.10432
H          H       0.81078   0.45848   0.58078   0.12206
H          H       0.53131   0.34686   0.73251   0.12074
H          H       0.64981   0.19604   0.60955   0.12166
H          H       0.18907   0.54117   0.64544   0.11884
H          H       0.45874   0.65186   0.52825   0.12088
H          H       0.34286   0.80692   0.71560   0.12108
H          H       0.78851   0.36121   0.88693   0.10380
H          H       0.61950   0.44262   0.78660   0.10656
H          H       0.53201   0.17206   0.88089   0.10163
H          H       0.15483   0.60859   0.92154   0.09870
H          H       0.35069   0.55216   0.94614   0.10624
H          H       0.42332   0.79881   0.84826   0.10770
H          H       0.72381   0.32440   0.89957   0.09352
H          H       0.65320   0.41347   0.78692   0.10295
H          H       0.55853   0.23490   0.90355   0.10277
H          H       0.21939   0.64591   0.90816   0.10124
H          H       0.31197   0.57655   0.93418   0.10117
H          H       0.39348   0.73617   0.83810   0.10350
H          H       0.85421   0.39519   0.70323   0.07323
H          H       0.58379   0.45971   0.81428   0.07308
H          H       0.53278   0.13712   0.66132   0.07355
H          H       0.11586   0.58715   0.81216   0.06813
H          H       0.38985   0.53541   0.73595   0.07285
H          H       0.44299   0.85154   0.85973   0.07838
H          H       0.91564   0.40598   0.70822   0.11577
H          H       0.56993   0.51043   0.81197   0.12651
H          H       0.48322   0.07305   0.65389   0.11294
H          H       0.05253   0.57371   0.82009   0.10969
H          H       0.40229   0.48462   0.73388   0.11452
H          H       0.49355   0.91774   0.86122   0.13003
H          H       0.44581   0.03935   0.54985   0.05628
H          H       0.97400   0.41192   0.54334   0.06638
H          H       0.58653   0.57005   0.51951   0.07078
H          H       0.56321   0.97833   0.59412   0.07194
H          H       0.00983   0.58253   0.54573   0.06286
H          H       0.40236   0.44222   0.62166   0.05863
H          H       0.42035   0.02935   0.80329   0.05949
H          H       0.94103   0.38159   0.78261   0.06001
H          H       0.60194   0.57354   0.69512   0.04935
H          H       0.57214   0.96840   0.78028   0.05831
H          H       0.03459   0.59631   0.68313   0.04797
H          H       0.37715   0.42676   0.87658   0.06373
H          H       0.38134   0.98769   0.57407   0.13848
H          H       0.99323   0.37118   0.76003   0.12714
H          H       0.59918   0.62937   0.72522   0.13208
H          H       0.62072   0.03726   0.70479   0.12956
H          H       0.98453   0.60891   0.89666   0.12763
H          H       0.36453   0.36462   0.86952   0.13268
H          H       0.37692   0.02269   0.65901   0.12793
H          H       0.02523   0.40109   0.52084   0.14069
H          H       0.58660   0.62632   0.54050   0.13787
H          H       0.61318   0.04508   0.51065   0.13415
H          H       0.96139   0.59650   0.75283   0.13719
H          H       0.39154   0.38069   0.61524   0.14399
H          H       0.35654   0.98072   0.82392   0.13827
H          H       0.98024   0.35862   0.57970   0.12754
H          H       0.63413   0.63670   0.48971   0.12433
H          H       0.63610   0.02150   0.50695   0.12134
H          H       0.01076   0.63610   0.65476   0.12178
H          H       0.34537   0.37617   0.74117   0.12854
C          C       0.71500   0.35551   0.27507   0.07900
C          C       0.65979   0.35316   0.26214   0.07601
C          C       0.66322   0.29939   0.26282   0.06751
C          C       0.30757   0.64963   0.24786   0.07515
C          C       0.36560   0.65283   0.22467   0.07669
C          C       0.36171   0.70604   0.24852   0.07448
C          C       0.69520   0.37199   0.27090  -0.17283
C          C       0.64461   0.31690   0.25656  -0.18009
C          C       0.69816   0.31889   0.27447  -0.17608
C          C       0.32833   0.63335   0.23544  -0.18290
C          C       0.38220   0.68920   0.22862  -0.18855
C          C       0.32469   0.68576   0.25575  -0.17869
C          C       0.75407   0.37677   0.26588   0.05479
C          C       0.63903   0.37056   0.25597   0.06208
C          C       0.64720   0.26202   0.24542   0.06081
C          C       0.26835   0.62898   0.25795   0.06674
C          C       0.38641   0.63485   0.21792   0.05913
C          C       0.37816   0.74367   0.26355   0.05482
C          C       0.78000   0.41492   0.17493  -0.11817
C          C       0.60774   0.35375   0.21379  -0.13425
C          C       0.67199   0.24993   0.15846  -0.14092
C          C       0.25638   0.59801   0.19364  -0.12938
C          C       0.42748   0.65282   0.09467  -0.12909
C          C       0.36238   0.76345   0.24214  -0.12523
C          C       0.81690   0.43527   0.16414  -0.15551
C          C       0.58699   0.36905   0.21444  -0.14417
C          C       0.65658   0.21470   0.14251  -0.15574
C          C       0.21916   0.57756   0.20813  -0.14748
C          C       0.44721   0.63667   0.09935  -0.15535
C          C       0.37817   0.79899   0.25345  -0.15453
C          C       0.83028   0.41819   0.23783   0.20151
C          C       0.59686   0.40243   0.25492   0.19672
C          C       0.61562   0.19017   0.20835   0.20893
C          C       0.19204   0.58747   0.28564   0.20716
C          C       0.42636   0.60144   0.22544   0.20713
C          C       0.41091   0.81690   0.28464   0.19717
C          C       0.80485   0.37993   0.32662  -0.17829
C          C       0.62838   0.41967   0.29589  -0.17205
C          C       0.59074   0.20221   0.29451  -0.17583
C          C       0.20366   0.61846   0.35122  -0.17376
C          C       0.38518   0.58316   0.34766  -0.17747
C          C       0.42694   0.79737   0.30655  -0.17625
C          C       0.76745   0.35992   0.34144  -0.12732
C          C       0.64879   0.40408   0.29651  -0.12574
C          C       0.60625   0.23718   0.31345  -0.11604
C          C       0.24090   0.63860   0.33748  -0.11709
C          C       0.36576   0.59970   0.34315  -0.12264
C          C       0.41060   0.76164   0.29767  -0.12155
C          C       0.88889   0.42863   0.21611   0.06726
C          C       0.58400   0.44803   0.25762   0.06283
C          C       0.56992   0.13503   0.18549   0.07147
C          C       0.13303   0.57622   0.30694   0.06323
C          C       0.43381   0.55293   0.24689   0.05422
C          C       0.45289   0.87186   0.32717   0.07440
C          C       0.92459   0.45061   0.22715  -0.00900
C          C       0.55988   0.46072   0.25895  -0.01874
C          C       0.55363   0.09696   0.20227  -0.00879
C          C       0.09707   0.55326   0.29950  -0.00580
C          C       0.45492   0.53751   0.25965  -0.01427
C          C       0.46714   0.90933   0.31832  -0.01400
C          C       0.97964   0.50013   0.26092  -0.08901
C          C       0.50683   0.46676   0.26706  -0.10811
C          C       0.54011   0.03485   0.25639  -0.09291
C          C       0.04308   0.50328   0.26039  -0.10664
C          C       0.50461   0.52816   0.26912  -0.08851
C          C       0.47794   0.97040   0.27395  -0.09933
C          C       0.98341   0.46973   0.23502  -0.02554
C          C       0.53813   0.49936   0.26880  -0.01053
C          C       0.50947   0.03516   0.23620  -0.02655
C          C       0.03881   0.53303   0.28665  -0.01387
C          C       0.47265   0.49547   0.26656  -0.02502
C          C       0.50791   0.97041   0.29865  -0.00234
C          C       0.95097   0.44190   0.21633  -0.20303
C          C       0.56797   0.49513   0.26507  -0.20171
C          C       0.51896   0.07173   0.20259  -0.20824
C          C       0.07031   0.56130   0.30784  -0.20121
C          C       0.44463   0.50226   0.26263  -0.20243
C          C       0.50046   0.93482   0.32809  -0.19421
C          C       0.00642   0.53115   0.28618   0.12557
C          C       0.47422   0.46411   0.26616   0.16248
C          C       0.53995   0.00363   0.28547   0.12922
C          C       0.01639   0.47204   0.23316   0.14663
C          C       0.53676   0.53048   0.26981   0.12947
C          C       0.47773   0.00173   0.24531   0.15582
C          C       0.44162   0.02457   0.18606   0.07852
C          C       0.00818   0.41725   0.13806   0.07298
C          C       0.59722   0.58738   0.07162   0.06832
C          C       0.59656   0.00066   0.13615   0.07670
C          C       0.01979   0.58830   0.14729   0.07140
C          C       0.41549   0.42446   0.23269   0.07999
C          C       0.40378   0.00712   0.17315  -0.41778
C          C       0.03658   0.40547   0.06007  -0.41243
C          C       0.62466   0.62460   0.08245  -0.41164
C          C       0.63974   0.03045   0.06954  -0.41573
C          C       0.01464   0.61814   0.20980  -0.41182
C          C       0.39664   0.38683   0.20523  -0.41515
C          C       0.68964   0.34807   0.76490   0.07898
C          C       0.63319   0.34477   0.76144   0.07140
C          C       0.63649   0.29089   0.76690   0.07260
C          C       0.28207   0.63910   0.74957   0.07937
C          C       0.34070   0.64451   0.73116   0.07282
C          C       0.33466   0.69657   0.75162   0.07543
C          C       0.66929   0.36408   0.76375  -0.18311
C          C       0.61750   0.30814   0.76136  -0.18696
C          C       0.67237   0.31115   0.77022  -0.17976
C          C       0.30388   0.62403   0.73825  -0.17903
C          C       0.35571   0.68057   0.73677  -0.18114
C          C       0.29791   0.67534   0.75679  -0.17810
C          C       0.72892   0.37004   0.75340   0.06202
C          C       0.61258   0.36252   0.75837   0.05828
C          C       0.61998   0.25270   0.76095   0.06052
C          C       0.24300   0.61660   0.75948   0.05956
C          C       0.36319   0.62863   0.72709   0.06051
C          C       0.35116   0.73440   0.76373   0.06268
C          C       0.75418   0.40828   0.66460  -0.12646
C          C       0.57776   0.34454   0.74349  -0.12640
C          C       0.64502   0.24065   0.68025  -0.12122
C          C       0.23328   0.58635   0.68833  -0.12502
C          C       0.40483   0.64954   0.61372  -0.12135
C          C       0.33702   0.75511   0.73256  -0.13229
C          C       0.79120   0.42911   0.65267  -0.15054
C          C       0.55805   0.36102   0.74516  -0.14409
C          C       0.63018   0.20503   0.67200  -0.14831
C          C       0.19619   0.56420   0.70274  -0.14184
C          C       0.42664   0.63582   0.61806  -0.14973
C          C       0.35344   0.79081   0.74272  -0.14191
C          C       0.80488   0.41258   0.72809   0.20410
C          C       0.57224   0.39663   0.76137   0.20359
C          C       0.58936   0.17987   0.73851   0.20594
C          C       0.16748   0.57221   0.78176   0.20059
C          C       0.40733   0.60019   0.73483   0.20713
C          C       0.38496   0.80775   0.78338   0.19536
C          C       0.77974   0.37434   0.81716  -0.17747
C          C       0.60733   0.41507   0.77396  -0.16729
C          C       0.56388   0.19148   0.82126  -0.19053
C          C       0.17691   0.60249   0.85308  -0.17495
C          C       0.36566   0.57908   0.84881  -0.18268
C          C       0.39934   0.78719   0.81433  -0.17082
C          C       0.74285   0.35369   0.82725  -0.12421
C          C       0.62668   0.39833   0.77341  -0.11695
C          C       0.57898   0.22704   0.83320  -0.12979
C          C       0.21366   0.62384   0.84359  -0.12081
C          C       0.34408   0.59307   0.84332  -0.13279
C          C       0.38256   0.75147   0.80575  -0.12825
C          C       0.86233   0.42255   0.71704   0.06712
C          C       0.55964   0.44245   0.78405   0.05373
C          C       0.54723   0.12558   0.69555   0.06810
C          C       0.10886   0.56009   0.79724   0.06568
C          C       0.41706   0.55353   0.74349   0.06675
C          C       0.42800   0.86234   0.82561   0.06819
C          C       0.89807   0.44366   0.72885  -0.00982
C          C       0.53785   0.45714   0.77448  -0.01274
C          C       0.53206   0.08797   0.70273  -0.02689
C          C       0.07286   0.53788   0.78984  -0.00303
C          C       0.43783   0.53787   0.75579  -0.02470
C          C       0.44303   0.90003   0.81600  -0.00437
C          C       0.95531   0.49126   0.75719  -0.08879
C          C       0.48917   0.46668   0.75191  -0.10329
C          C       0.51791   0.02559   0.75291  -0.09852
C          C       0.01663   0.48998   0.75517  -0.10050
C          C       0.48627   0.52725   0.76834  -0.10031
C          C       0.45657   0.96217   0.75778  -0.10236
C          C       0.95598   0.45916   0.73857  -0.02057
C          C       0.51889   0.49779   0.77177  -0.01473
C          C       0.48926   0.02712   0.71786  -0.02411
C          C       0.01495   0.52114   0.77948  -0.00651
C          C       0.45518   0.49557   0.75537  -0.03062
C          C       0.48522   0.96120   0.79138  -0.01189
C          C       0.92236   0.43253   0.72390  -0.20363
C          C       0.54592   0.49124   0.78787  -0.18724
C          C       0.49924   0.06387   0.68586  -0.20097
C          C       0.04740   0.54780   0.80009  -0.20327
C          C       0.42790   0.50307   0.74864  -0.20643
C          C       0.47621   0.92504   0.82846  -0.19488
C          C       0.98323   0.52139   0.78263   0.13659
C          C       0.45716   0.46453   0.74726   0.14524
C          C       0.51648   0.99375   0.78915   0.14669
C          C       0.98744   0.45882   0.74067   0.14427
C          C       0.51751   0.52893   0.77667   0.14868
C          C       0.45744   0.99403   0.72507   0.15266
C          C       0.42069   0.01768   0.68472   0.07786
C          C       0.97239   0.40061   0.67277   0.08069
C          C       0.58564   0.57979   0.64394   0.07161
C          C       0.57238   0.98906   0.69807   0.07265
C          C       0.00591   0.58482   0.68756   0.06947
C          C       0.39475   0.42308   0.74644   0.08414
C          C       0.38151   0.00117   0.68582  -0.41831
C          C       0.99408   0.38174   0.63119  -0.41336
C          C       0.60242   0.62047   0.59707  -0.41802
C          C       0.61296   0.02538   0.59938  -0.42206
C          C       0.98968   0.60790   0.75203  -0.40915
C          C       0.37270   0.38374   0.74318  -0.42234
S          S       0.93767   0.49328   0.26194   0.15285
S          S       0.51505   0.43197   0.25954   0.13507
S          S       0.57755   0.07790   0.23802   0.11710
S          S       0.08495   0.51073   0.26364   0.14580
S          S       0.49899   0.56447   0.26626   0.13578
S          S       0.44282   0.92754   0.27844   0.14635
S          S       0.91485   0.48742   0.75367   0.15204
S          S       0.49642   0.43129   0.74473   0.13765
S          S       0.55369   0.06766   0.75263   0.14082
S          S       0.05817   0.49506   0.75368   0.13764
S          S       0.48083   0.56366   0.77213   0.13864
S          S       0.42037   0.91935   0.76693   0.12957
N          N       0.86683   0.44045   0.23076  -0.28277
N          N       0.57390   0.41517   0.25203  -0.28429
N          N       0.60184   0.15458   0.19853  -0.29154
N          N       0.15568   0.56506   0.29166  -0.28831
N          N       0.44803   0.58727   0.23025  -0.28417
N          N       0.42456   0.85288   0.28794  -0.30086
N          N       0.84144   0.43521   0.72073  -0.28871
N          N       0.55054   0.41084   0.75808  -0.29001
N          N       0.57649   0.14436   0.72861  -0.28809
N          N       0.13179   0.54923   0.78118  -0.29220
N          N       0.43028   0.58741   0.73627  -0.27754
N          N       0.39917   0.84374   0.78852  -0.30078
O          O       0.44568   0.99535   0.22988  -0.18374
O          O       0.02519   0.44624   0.21637  -0.19715
O          O       0.56730   0.56297   0.26604  -0.23062
O          O       0.57122   0.00617   0.29775  -0.22486
O          O       0.00019   0.55871   0.31838  -0.22486
O          O       0.44702   0.43031   0.26793  -0.18725
O          O       0.42582   0.98839   0.70716  -0.18674
O          O       0.99205   0.43022   0.74150  -0.20192
O          O       0.54445   0.56028   0.79603  -0.22271
O          O       0.54319   0.99428   0.83616  -0.22611
O          O       0.97676   0.54833   0.82471  -0.22587
O          O       0.43078   0.43118   0.74037  -0.19002

