data_crystal

_audit_creation_method 'AiiDA-DDEC plugin'

_cell_length_a        25.01315
_cell_length_b        17.18240
_cell_length_c        12.01202

_cell_angle_alpha     92.45607
_cell_angle_beta     88.31461
_cell_angle_gamma     110.38337

_symmetry_space_group_name_Hall 'P 1'
_symmetry_space_group_name_H-M  'P 1'

loop_
_symmetry_equiv_pos_as_xyz
 'x,y,z'

loop_
_atom_site_label
_atom_site_type_symbol
_atom_site_fract_x
_atom_site_fract_y
_atom_site_fract_z
_atom_site_charge
H          H       0.64343   0.64023   0.08994   0.11778
H          H       0.66669   0.93531   0.05001   0.11759
H          H       0.77948   0.87425   0.26045   0.10549
H          H       0.86691   0.99214   0.30168   0.10785
H          H       0.86070   0.08622   0.47350   0.10524
H          H       0.77072   0.96889   0.44044   0.10578
H          H       0.71954   0.67587   0.26512   0.11225
H          H       0.80590   0.64156   0.30023   0.11124
H          H       0.86930   0.73273   0.48363   0.09824
H          H       0.78384   0.77125   0.45677   0.10577
H          H       0.58761   0.89097   0.36194   0.11345
H          H       0.50108   0.92603   0.32870   0.10808
H          H       0.43768   0.84326   0.16225   0.09910
H          H       0.52171   0.80143   0.18976   0.10600
H          H       0.54137   0.60340   0.19892   0.10692
H          H       0.45226   0.48709   0.16252   0.10556
H          H       0.44654   0.58474   0.33765   0.10612
H          H       0.53460   0.70305   0.37778   0.10428
H          H       0.38747   0.82293   0.31692   0.10638
H          H       0.29270   0.83651   0.29800   0.10545
H          H       0.31973   0.99176   0.09761   0.10179
H          H       0.41421   0.97822   0.12038   0.11147
H          H       0.95927   0.06442   0.27765   0.10875
H          H       0.04571   0.18606   0.31207   0.10280
H          H       0.98258   0.33174   0.10601   0.09864
H          H       0.89413   0.21133   0.07541   0.10729
H          H       0.89556   0.59297   0.04006   0.11336
H          H       0.99058   0.58198   0.06385   0.10250
H          H       0.02297   0.76110   0.33711   0.10837
H          H       0.92742   0.77148   0.31421   0.10926
H          H       0.35315   0.51434   0.35978   0.10830
H          H       0.26627   0.39163   0.33021   0.10062
H          H       0.32554   0.24677   0.04322   0.09846
H          H       0.41346   0.36837   0.07769   0.10769
H          H       0.09625   0.34262   0.29768   0.04293
H          H       0.08574   0.69574   0.30241   0.04161
H          H       0.21659   0.23876   0.35084   0.04394
H          H       0.22601   0.88707   0.35041   0.04071
H          H       0.25847   0.05553   0.09191   0.05274
H          H       0.18728   0.98286   0.09251   0.08438
H          H       0.19064   0.12906   0.09553   0.07424
H          H       0.15819   0.07432   0.47674   0.06404
H          H       0.28762   0.17360   0.30404   0.08465
H          H       0.21517   0.10534   0.29679   0.05593
H          H       0.27574   0.02117   0.28800   0.07537
H          H       0.31535   0.07496   0.40533   0.06191
H          H       0.09340   0.47539   0.35574   0.05620
H          H       0.02123   0.40690   0.34354   0.08566
H          H       0.03141   0.55839   0.35878   0.07715
H          H       0.99579   0.50542   0.23756   0.06015
H          H       0.12774   0.59951   0.06359   0.08464
H          H       0.05706   0.52636   0.05442   0.05268
H          H       0.12681   0.45463   0.05987   0.07662
H          H       0.15435   0.50806   0.18749   0.06416
H          H       0.07465   0.31699   0.48572   0.08445
H          H       0.07312   0.21026   0.05137   0.06870
H          H       0.17403   0.35457   0.43225   0.05736
H          H       0.13568   0.25175   0.38040   0.06988
H          H       0.23596   0.36511   0.09289   0.06910
H          H       0.23876   0.27289   0.14939   0.08576
H          H       0.14121   0.23080   0.21473   0.05695
H          H       0.17809   0.33602   0.25973   0.07248
H          H       0.19248   0.70900   0.12665   0.06704
H          H       0.18121   0.75292   0.25816   0.08836
H          H       0.25512   0.85310   0.13601   0.08074
H          H       0.19805   0.88742   0.17927   0.05640
H          H       0.13270   0.83175   0.39546   0.08555
H          H       0.12041   0.86989   0.03085   0.06732
H          H       0.05854   0.72397   0.01677   0.08155
H          H       0.11748   0.69779   0.47563   0.05646
H          H       0.64202   0.64530   0.60202   0.11846
H          H       0.66791   0.93987   0.54813   0.11887
H          H       0.77203   0.89327   0.77661   0.10421
H          H       0.85946   0.01324   0.81279   0.10127
H          H       0.85379   0.09673   0.98818   0.10558
H          H       0.76448   0.98107   0.95088   0.10751
H          H       0.73018   0.70947   0.79523   0.11267
H          H       0.81710   0.67506   0.82364   0.10477
H          H       0.88365   0.76063  -0.00047   0.10386
H          H       0.79801   0.79719   0.96612   0.10716
H          H       0.58202   0.87659   0.85868   0.11080
H          H       0.49715   0.91600   0.82997   0.10753
H          H       0.43400   0.83621   0.65074   0.10071
H          H       0.51916   0.79747   0.68163   0.10617
H          H       0.54368   0.60672   0.69806   0.10592
H          H       0.45353   0.49115   0.66227   0.10474
H          H       0.44741   0.57659   0.83432   0.10314
H          H       0.53517   0.69477   0.87348   0.10436
H          H       0.38737   0.81967   0.82524   0.10627
H          H       0.29230   0.83147   0.80424   0.10650
H          H       0.32069   0.99087   0.59692   0.10287
H          H       0.41532   0.97780   0.61543   0.11176
H          H       0.95425   0.07389   0.78678   0.10971
H          H       0.04128   0.19588   0.81820   0.10029
H          H       0.98500   0.33216   0.58538   0.09845
H          H       0.89709   0.21012   0.55293   0.10897
H          H       0.89965   0.61207   0.52321   0.11270
H          H       0.99372   0.59962   0.54665   0.09980
H          H       0.01625   0.74915   0.85025   0.10620
H          H       0.92077   0.75893   0.82800   0.10263
H          H       0.35268   0.51140   0.86034   0.10878
H          H       0.26597   0.38987   0.82624   0.10265
H          H       0.32680   0.25419   0.55394   0.09996
H          H       0.41513   0.37613   0.58204   0.10773
H          H       0.09309   0.34851   0.79381   0.04364
H          H       0.08425   0.70026   0.80070   0.04245
H          H       0.21451   0.23514   0.84534   0.04496
H          H       0.22597   0.88273   0.85188   0.03948
H          H       0.26149   0.05969   0.59320   0.05429
H          H       0.19076   0.98547   0.59575   0.08494
H          H       0.19056   0.13063   0.59883   0.07447
H          H       0.15589   0.07273   0.97538   0.06476
H          H       0.28407   0.16679   0.79616   0.08431
H          H       0.21163   0.09860   0.79283   0.05762
H          H       0.27280   0.01480   0.78566   0.07440
H          H       0.31279   0.07136   0.90143   0.06242
H          H       0.09270   0.47802   0.85085   0.05585
H          H       0.01991   0.41209   0.83930   0.08465
H          H       0.03353   0.56453   0.85999   0.07692
H          H       0.99537   0.51397   0.73959   0.06280
H          H       0.12265   0.60391   0.55671   0.08426
H          H       0.05083   0.53402   0.55435   0.05284
H          H       0.11630   0.45649   0.54444   0.07297
H          H       0.15208   0.50897   0.66581   0.06466
H          H       0.06868   0.30146   0.99439   0.08857
H          H       0.07277   0.22184   0.54105   0.06947
H          H       0.16684   0.34489   0.92806   0.05647
H          H       0.13047   0.23957   0.88238   0.07496
H          H       0.23574   0.36468   0.60562   0.06962
H          H       0.23385   0.26895   0.65905   0.08421
H          H       0.13373   0.23020   0.70935   0.05679
H          H       0.17192   0.33177   0.76552   0.07023
H          H       0.19078   0.71163   0.62813   0.06831
H          H       0.17997   0.75791   0.75799   0.08708
H          H       0.25481   0.85558   0.63580   0.08109
H          H       0.19797   0.89097   0.67718   0.05622
H          H       0.13185   0.82830   0.89803   0.08761
H          H       0.12162   0.87551   0.52725   0.06952
H          H       0.05867   0.73002   0.51371   0.08182
H          H       0.11759   0.69305   0.97636   0.05848
C          C       0.60757   0.80995   0.04443   0.02338
C          C       0.60057   0.72560   0.05775   0.02385
C          C       0.64846   0.70546   0.08369  -0.18429
C          C       0.70299   0.76568   0.09503   0.02325
C          C       0.70995   0.85034   0.08240   0.02026
C          C       0.66196   0.87024   0.05621  -0.18351
C          C       0.76491   0.91879   0.10300   0.06375
C          C       0.75280   0.73984   0.11374   0.06392
C          C       0.55769   0.83585   0.02600   0.06704
C          C       0.54510   0.65790   0.03881   0.06497
C          C       0.79566   0.92316   0.20071  -0.12712
C          C       0.84557   0.98986   0.22333  -0.13867
C          C       0.86756   0.05491   0.14867   0.05827
C          C       0.83726   0.04927   0.04980  -0.13893
C          C       0.78676   0.98333   0.02811  -0.13960
C          C       0.75541   0.69441   0.20653  -0.14027
C          C       0.80416   0.67518   0.22647  -0.14014
C          C       0.85106   0.69879   0.15246   0.06255
C          C       0.84747   0.74151   0.05732  -0.13658
C          C       0.79943   0.76234   0.03882  -0.13007
C          C       0.55389   0.87889   0.42523  -0.14197
C          C       0.50519   0.89844   0.40644  -0.13842
C          C       0.46139   0.88299   0.48724   0.06211
C          C       0.46944   0.85082   0.09578  -0.13489
C          C       0.51662   0.82729   0.11130  -0.13351
C          C       0.52086   0.59777   0.11885  -0.13796
C          C       0.47031   0.53173   0.09781  -0.13898
C          C       0.44235   0.52209   0.99539   0.05709
C          C       0.46662   0.58973   0.41806  -0.13679
C          C       0.51671   0.65627   0.43988  -0.12986
C          C       0.40771   0.89823   0.46881   0.06059
C          C       0.91979   0.12737   0.17213   0.05286
C          C       0.90510   0.68425   0.17393   0.05951
C          C       0.39073   0.45542   0.47501   0.05370
C          C       0.37314   0.86053   0.37763  -0.13684
C          C       0.31957   0.86734   0.36797  -0.13531
C          C       0.29871   0.91161   0.44820   0.04205
C          C       0.33400   0.95315   0.03827  -0.12401
C          C       0.38742   0.94587   0.05107  -0.14267
C          C       0.96342   0.12296   0.24053  -0.13681
C          C       0.01275   0.19207   0.25935  -0.13709
C          C       0.02078   0.26796   0.20982   0.02876
C          C       0.97700   0.27285   0.14343  -0.12584
C          C       0.92761   0.20445   0.12557  -0.13320
C          C       0.92350   0.63016   0.10508  -0.14388
C          C       0.97723   0.62403   0.11876  -0.12562
C          C       0.01435   0.67238   0.20072   0.03706
C          C       0.99487   0.72370   0.27230  -0.13393
C          C       0.94109   0.72945   0.25978  -0.13978
C          C       0.34808   0.45755   0.40251  -0.13550
C          C       0.29869   0.38812   0.38635  -0.13979
C          C       0.28986   0.31452   0.44228   0.02966
C          C       0.33185   0.30543   0.00441  -0.12615
C          C       0.38106   0.37392   0.02335  -0.13301
C          C       0.07802   0.33948   0.21431   0.13008
C          C       0.07476   0.67254   0.21595   0.12113
C          C       0.23316   0.24212   0.43571   0.12917
C          C       0.23801   0.91048   0.43634   0.11740
C          C       0.21933   0.02856   0.04203  -0.08035
C          C       0.19751   0.09872   0.01709  -0.08628
C          C       0.25366   0.12622   0.34942  -0.08178
C          C       0.27242   0.05241   0.36851  -0.08018
C          C       0.05596   0.45466   0.30042  -0.08199
C          C       0.03757   0.52849   0.27899  -0.08056
C          C       0.09425   0.55256   0.10960  -0.08066
C          C       0.11549   0.48226   0.13672  -0.08681
C          C       0.09768   0.27587   0.03426  -0.08718
C          C       0.15138   0.28954   0.45597  -0.09629
C          C       0.21063   0.29956   0.10871  -0.08564
C          C       0.16106   0.29546   0.18697  -0.09690
C          C       0.17543   0.75441   0.16797  -0.08110
C          C       0.20947   0.84111   0.12622  -0.09492
C          C       0.13826   0.82979   0.48563  -0.08362
C          C       0.10432   0.73810   0.02828  -0.09417
C          C       0.60820   0.81496   0.54474   0.02108
C          C       0.60059   0.73080   0.56116   0.02070
C          C       0.64755   0.71038   0.59267  -0.18291
C          C       0.70193   0.77039   0.60522   0.02227
C          C       0.70959   0.85447   0.58791   0.02287
C          C       0.66252   0.87489   0.55750  -0.18546
C          C       0.76488   0.92251   0.60608   0.06705
C          C       0.75162   0.74444   0.62464   0.06962
C          C       0.55888   0.84104   0.52367   0.06835
C          C       0.54558   0.66317   0.54052   0.06363
C          C       0.79158   0.93533   0.70994  -0.13227
C          C       0.84130   0.00291   0.72986  -0.13728
C          C       0.86693   0.05932   0.64583   0.06026
C          C       0.84082   0.04507   0.54102  -0.13869
C          C       0.79038   0.97843   0.52189  -0.13980
C          C       0.76086   0.71534   0.72708  -0.14244
C          C       0.80972   0.69561   0.74290  -0.13596
C          C       0.84956   0.70186   0.65577   0.06066
C          C       0.83871   0.72737   0.55176  -0.13424
C          C       0.79091   0.74942   0.53689  -0.13637
C          C       0.55039   0.86920   0.92542  -0.14112
C          C       0.50236   0.89087   0.90893  -0.13650
C          C       0.46085   0.88124   0.99365   0.05984
C          C       0.46783   0.84854   0.58780  -0.13586
C          C       0.51545   0.82677   0.60512  -0.13234
C          C       0.52227   0.60178   0.61910  -0.13745
C          C       0.47158   0.53628   0.59825  -0.13956
C          C       0.44301   0.52792   0.49666   0.05837
C          C       0.46675   0.58279   0.91565  -0.13442
C          C       0.51678   0.64952   0.93728  -0.13151
C          C       0.40718   0.89688   0.97547   0.06138
C          C       0.91912   0.13202   0.66640   0.05531
C          C       0.90366   0.68762   0.67312   0.06105
C          C       0.38993   0.44989   0.97261   0.05598
C          C       0.37280   0.85802   0.88447  -0.13684
C          C       0.31918   0.86425   0.87330  -0.13314
C          C       0.29819   0.90998   0.95130   0.03795
C          C       0.33470   0.95337   0.53557  -0.12760
C          C       0.38821   0.94624   0.54619  -0.14250
C          C       0.96045   0.13037   0.74240  -0.13707
C          C       0.00985   0.19946   0.75968  -0.14125
C          C       0.01956   0.27261   0.70225   0.02949
C          C       0.97795   0.27478   0.62803  -0.12560
C          C       0.92887   0.20603   0.61012  -0.13427
C          C       0.92517   0.64242   0.59493  -0.14380
C          C       0.97873   0.63592   0.60819  -0.12631
C          C       0.01325   0.67622   0.69840   0.04049
C          C       0.99068   0.71849   0.77852  -0.13472
C          C       0.93681   0.72372   0.76673  -0.13533
C          C       0.34757   0.45352   0.90036  -0.13730
C          C       0.29811   0.38460   0.88175  -0.13796
C          C       0.28902   0.30983   0.93502   0.02770
C          C       0.33279   0.31180   0.51266  -0.12663
C          C       0.38208   0.38060   0.52857  -0.13298
C          C       0.07611   0.34488   0.70922   0.12899
C          C       0.07379   0.67745   0.71405   0.12040
C          C       0.23181   0.23821   0.92949   0.12734
C          C       0.23718   0.90731   0.93762   0.12140
C          C       0.22190   0.03190   0.54474  -0.08448
C          C       0.19907   0.10132   0.52079  -0.08543
C          C       0.25062   0.12038   0.84391  -0.08130
C          C       0.26973   0.04736   0.86519  -0.08233
C          C       0.05495   0.45957   0.79640  -0.08064
C          C       0.03771   0.53481   0.77877  -0.08180
C          C       0.08991   0.55750   0.60482  -0.08150
C          C       0.11023   0.48516   0.62483  -0.08650
C          C       0.10015   0.28708   0.52885  -0.08622
C          C       0.14728   0.28017   0.95539  -0.09421
C          C       0.20850   0.29916   0.61614  -0.08693
C          C       0.15691   0.29573   0.68837  -0.09691
C          C       0.17439   0.75836   0.66754  -0.08225
C          C       0.20933   0.84430   0.62485  -0.09294
C          C       0.13760   0.82527   0.98793  -0.08262
C          C       0.10422   0.74329   0.52666  -0.09345
N          N       0.23055   0.99261   0.43885  -0.19818
N          N       0.06953   0.41890   0.19503  -0.18902
N          N       0.11999   0.32495   0.13560  -0.15283
N          N       0.11484   0.73453   0.14667  -0.17341
N          N       0.24253   0.16340   0.45570  -0.18806
N          N       0.08127   0.58976   0.21368  -0.20003
N          N       0.18882   0.25142   0.00669  -0.15324
N          N       0.19824   0.84522   0.00843  -0.17283
N          N       0.22840   0.98839   0.93731  -0.19983
N          N       0.06649   0.42344   0.68957  -0.18653
N          N       0.12017   0.33210   0.63410  -0.15661
N          N       0.11401   0.73991   0.64543  -0.17481
N          N       0.24064   0.15916   0.94953  -0.18647
N          N       0.08111   0.59525   0.71173  -0.19893
N          N       0.18896   0.25476   0.51037  -0.15566
N          N       0.19871   0.84826   0.50657  -0.17354

