data_crystal

_audit_creation_method 'AiiDA-DDEC plugin'

_cell_length_a        33.21937
_cell_length_b        33.15719
_cell_length_c         8.24656

_cell_angle_alpha     89.35252
_cell_angle_beta     90.55794
_cell_angle_gamma     89.99131

_symmetry_space_group_name_Hall 'P 1'
_symmetry_space_group_name_H-M  'P 1'

loop_
_symmetry_equiv_pos_as_xyz
 'x,y,z'

loop_
_atom_site_label
_atom_site_type_symbol
_atom_site_fract_x
_atom_site_fract_y
_atom_site_fract_z
_atom_site_charge
H          H       0.00434   0.53423   0.19922   0.27553
H          H      -0.00042   0.46758   0.18973   0.27743
H          H       0.46881   0.00186   0.19324   0.27725
H          H       0.53570   0.99793   0.19196   0.27722
H          H       0.85460   0.54854   0.09386   0.11867
H          H       0.14905   0.45457   0.10383   0.11993
H          H       0.45612   0.85146   0.10591   0.11905
H          H       0.54776   0.14864   0.10683   0.11933
H          H       0.85079   0.46777   0.08747   0.11818
H          H       0.15318   0.53529   0.11049   0.11806
H          H       0.53679   0.84781   0.11064   0.11864
H          H       0.46713   0.15215   0.11092   0.12137
H          H       0.04804   0.64920   0.33459   0.12885
H          H       0.95495   0.35346   0.33862   0.13184
H          H       0.35528   0.04512   0.34273   0.12777
H          H       0.65088   0.95358   0.32926   0.12961
H          H       0.96731   0.65184   0.32798   0.13125
H          H       0.03564   0.35009   0.33811   0.13033
H          H       0.35272   0.96411   0.33993   0.12974
H          H       0.65336   0.03452   0.32873   0.13060
H          H       0.15129   0.56369   0.38283   0.10355
H          H       0.85172   0.43766   0.35844   0.10449
H          H       0.43663   0.14870   0.37863   0.10390
H          H       0.56749   0.85119   0.38306   0.10397
H          H       0.20779   0.61229   0.39197   0.10639
H          H       0.79603   0.38841   0.36549   0.10495
H          H       0.38637   0.20346   0.38528   0.10650
H          H       0.61598   0.79496   0.39161   0.10659
H          H       0.13889   0.69555   0.09867   0.10863
H          H       0.86630   0.30676   0.08122   0.10905
H          H       0.30750   0.13390   0.08007   0.10787
H          H       0.69511   0.86283   0.08121   0.10396
H          H       0.08343   0.64600   0.08270   0.10279
H          H       0.92143   0.35666   0.07212   0.10250
H          H       0.35792   0.07945   0.07510   0.10124
H          H       0.64625   0.91857   0.07210   0.10137
H          H       0.06772   0.35182   0.06931   0.10060
H          H       0.93304   0.65055   0.06155   0.09959
H          H       0.65089   0.06969   0.06572   0.10002
H          H       0.35260   0.93121   0.07245   0.09941
H          H       0.11703   0.29554   0.08237   0.12240
H          H       0.88172   0.70512   0.07282   0.12228
H          H       0.70586   0.12039   0.08198   0.12296
H          H       0.29724   0.88101   0.09450   0.12382
H          H       0.19452   0.36703   0.38476   0.10854
H          H       0.80999   0.63104   0.38890   0.10757
H          H       0.63294   0.19307   0.39161   0.10627
H          H       0.37245   0.80621   0.39974   0.10794
H          H       0.14449   0.42224   0.37726   0.10306
H          H       0.86122   0.57706   0.37711   0.10088
H          H       0.57894   0.14182   0.38029   0.10247
H          H       0.42714   0.85695   0.38093   0.10131
H          H       0.74607   0.35732   0.21223   0.10264
H          H       0.25653   0.64465   0.18202   0.10630
H          H       0.64508   0.74354   0.24790   0.10324
H          H       0.35568   0.25406   0.23292   0.10295
H          H       0.69149   0.30655   0.22194   0.09875
H          H       0.31137   0.69563   0.17716   0.09956
H          H       0.69572   0.68850   0.25077   0.09840
H          H       0.30441   0.30821   0.23493   0.09821
H          H       0.77901   0.21145   0.26276   0.11444
H          H       0.22795   0.78742   0.31889   0.11519
H          H       0.79107   0.77561   0.23148   0.11321
H          H       0.21015   0.21963   0.24444   0.11396
H          H       0.83407   0.26249   0.25496   0.10502
H          H       0.17261   0.73648   0.32031   0.10696
H          H       0.74054   0.83118   0.23478   0.10542
H          H       0.26161   0.16503   0.24298   0.10475
H          H       0.76421   0.66524   0.23885   0.05729
H          H       0.23736   0.33106   0.22784   0.05552
H          H       0.33562   0.76285   0.20923   0.05952
H          H       0.66819   0.23871   0.23129   0.05736
H          H       0.99835   0.53279   0.68596   0.27744
H          H       0.99695   0.46590   0.68445   0.27773
H          H       0.46499   0.00064   0.69175   0.27694
H          H       0.53158   0.99869   0.68998   0.27720
H          H       0.84862   0.54575   0.59736   0.12008
H          H       0.14645   0.45346   0.60889   0.11917
H          H       0.45155   0.85076   0.61460   0.11961
H          H       0.54448   0.14860   0.60015   0.11947
H          H       0.84604   0.46496   0.59395   0.11920
H          H       0.14926   0.53433   0.60928   0.11769
H          H       0.53225   0.84809   0.60838   0.11828
H          H       0.46384   0.15209   0.60891   0.12098
H          H       0.04357   0.64569   0.84118   0.12918
H          H       0.95149   0.35110   0.82080   0.12921
H          H       0.35213   0.04599   0.84229   0.13142
H          H       0.64508   0.95302   0.84273   0.12785
H          H       0.96292   0.64933   0.83365   0.12926
H          H       0.03231   0.34782   0.82782   0.13238
H          H       0.34849   0.96508   0.84150   0.13147
H          H       0.64840   0.03398   0.84236   0.13343
H          H       0.14663   0.56440   0.87646   0.10453
H          H       0.85066   0.43301   0.86780   0.10363
H          H       0.43401   0.14731   0.88559   0.10420
H          H       0.56274   0.85092   0.87533   0.10344
H          H       0.20133   0.61489   0.88251   0.10391
H          H       0.79577   0.38292   0.87714   0.10443
H          H       0.38431   0.20240   0.89463   0.10281
H          H       0.61334   0.79668   0.89465   0.10354
H          H       0.12952   0.69476   0.58354   0.10612
H          H       0.86304   0.30577   0.56278   0.10759
H          H       0.30614   0.13568   0.57595   0.10411
H          H       0.69237   0.86609   0.58907   0.10708
H          H       0.07582   0.64344   0.57312   0.10033
H          H       0.91731   0.35634   0.55185   0.10029
H          H       0.35584   0.08085   0.56980   0.10102
H          H       0.64176   0.92039   0.57336   0.10146
H          H       0.06691   0.35116   0.55949   0.09803
H          H       0.92952   0.65034   0.56973   0.10134
H          H       0.64781   0.06614   0.57192   0.10033
H          H       0.34891   0.93329   0.57000   0.09926
H          H       0.11826   0.29646   0.56595   0.12193
H          H       0.88066   0.70680   0.59653   0.12274
H          H       0.70410   0.11552   0.58528   0.12286
H          H       0.29223   0.88456   0.58238   0.12299
H          H       0.19096   0.36656   0.89174   0.10589
H          H       0.80524   0.63073   0.88967   0.10697
H          H       0.63163   0.19275   0.87917   0.10845
H          H       0.36368   0.80683   0.89130   0.10722
H          H       0.14003   0.42085   0.88303   0.10215
H          H       0.85449   0.57526   0.86697   0.10262
H          H       0.57642   0.14278   0.87087   0.10343
H          H       0.41969   0.85574   0.88005   0.10331
H          H       0.74482   0.35434   0.71099   0.10385
H          H       0.24946   0.64648   0.70539   0.10444
H          H       0.64397   0.74669   0.75977   0.10302
H          H       0.35465   0.25401   0.77307   0.10311
H          H       0.68991   0.30349   0.71387   0.09898
H          H       0.30372   0.69789   0.70641   0.09983
H          H       0.69497   0.69218   0.76366   0.09873
H          H       0.30399   0.30862   0.77854   0.09845
H          H       0.77725   0.20806   0.73818   0.11397
H          H       0.21631   0.79138   0.77697   0.11481
H          H       0.78975   0.78017   0.76343   0.11369
H          H       0.20932   0.22223   0.70766   0.11363
H          H       0.83258   0.25912   0.74100   0.10563
H          H       0.16165   0.73968   0.77624   0.10560
H          H       0.73857   0.83526   0.75844   0.10501
H          H       0.25988   0.16701   0.70681   0.10498
H          H       0.76186   0.66942   0.74141   0.05819
H          H       0.23648   0.33241   0.75558   0.05659
H          H       0.32653   0.76457   0.71475   0.05851
H          H       0.66687   0.23562   0.70910   0.05745
C          C       0.87792   0.52722   0.12749  -0.18870
C          C       0.12580   0.47541   0.13966  -0.19334
C          C       0.47702   0.87508   0.13859  -0.18882
C          C       0.52700   0.12487   0.13967  -0.19048
C          C       0.87597   0.48623   0.12499  -0.19038
C          C       0.12786   0.51642   0.14274  -0.19268
C          C       0.51797   0.87324   0.14065  -0.19375
C          C       0.48605   0.12660   0.14163  -0.19530
C          C       0.91508   0.47161   0.18148   0.19248
C          C       0.08864   0.53048   0.19599   0.19187
C          C       0.53211   0.91283   0.19107   0.19200
C          C       0.47224   0.08679   0.19300   0.19253
C          C       0.91836   0.53737   0.18335   0.19307
C          C       0.08541   0.46461   0.19199   0.19347
C          C       0.46637   0.91565   0.18913   0.19246
C          C       0.53801   0.08404   0.18993   0.19322
C          C       0.02773   0.62530   0.29945  -0.19459
C          C       0.97548   0.37706   0.30172  -0.19428
C          C       0.37878   0.02475   0.30547  -0.19061
C          C       0.62686   0.97414   0.29547  -0.19320
C          C       0.98631   0.62670   0.29635  -0.18765
C          C       0.01690   0.37537   0.30225  -0.18939
C          C       0.37750   0.98325   0.30428  -0.18766
C          C       0.62817   0.01565   0.29495  -0.18932
C          C       0.97167   0.58833   0.24421   0.18329
C          C       0.03187   0.41353   0.24678   0.18399
C          C       0.41536   0.96880   0.24718   0.18345
C          C       0.58969   0.03057   0.24243   0.18334
C          C       0.04003   0.58595   0.24974   0.18292
C          C       0.96354   0.41623   0.24479   0.18267
C          C       0.41749   0.03725   0.24922   0.18167
C          C       0.58749   0.96203   0.24329   0.18216
C          C       0.93132   0.57726   0.21392  -0.06922
C          C       0.07238   0.42444   0.21961  -0.07101
C          C       0.42645   0.92839   0.21874  -0.06645
C          C       0.57826   0.07121   0.21678  -0.07123
C          C       0.07949   0.57150   0.22588  -0.07601
C          C       0.92417   0.43056   0.21323  -0.07467
C          C       0.43142   0.07700   0.22255  -0.07347
C          C       0.57315   0.92243   0.21949  -0.07561
C          C       0.90065   0.60959   0.21702   0.06683
C          C       0.10244   0.39146   0.22191   0.06738
C          C       0.39403   0.89780   0.22538   0.06581
C          C       0.61057   0.10200   0.22117   0.06716
C          C       0.89091   0.40088   0.21572   0.07878
C          C       0.11294   0.60104   0.23252   0.07771
C          C       0.60291   0.88919   0.22638   0.07893
C          C       0.40117   0.10980   0.22677   0.07935
C          C       0.14896   0.59223   0.31740  -0.12249
C          C       0.85448   0.40930   0.29472  -0.12429
C          C       0.40858   0.14582   0.31094  -0.12697
C          C       0.59509   0.85334   0.31387  -0.12243
C          C       0.18072   0.61961   0.32233  -0.14018
C          C       0.82311   0.38151   0.29795  -0.13486
C          C       0.38024   0.17673   0.31374  -0.13540
C          C       0.62251   0.82162   0.31837  -0.13786
C          C       0.17747   0.65759   0.24599   0.05636
C          C       0.82690   0.34360   0.22454   0.05381
C          C       0.34282   0.17295   0.23384   0.05271
C          C       0.65949   0.82451   0.23743   0.05425
C          C       0.14144   0.66682   0.16299  -0.13967
C          C       0.86322   0.33510   0.14524  -0.13792
C          C       0.33526   0.13697   0.14990  -0.13511
C          C       0.66758   0.86040   0.15100  -0.13527
C          C       0.11018   0.63896   0.15440  -0.12640
C          C       0.89432   0.36319   0.13981  -0.12760
C          C       0.36378   0.10626   0.14611  -0.12834
C          C       0.63992   0.89186   0.14500  -0.12810
C          C       0.09517   0.35489   0.14092  -0.12181
C          C       0.90616   0.64646   0.13376  -0.12481
C          C       0.64716   0.09643   0.13909  -0.12243
C          C       0.35670   0.90413   0.14628  -0.12086
C          C       0.12275   0.32338   0.14709  -0.15833
C          C       0.87762   0.67700   0.13964  -0.15821
C          C       0.67793   0.12473   0.14719  -0.16082
C          C       0.32572   0.87617   0.15790  -0.16317
C          C       0.16731   0.36398   0.31154  -0.18386
C          C       0.83615   0.63488   0.31186  -0.18310
C          C       0.63649   0.16666   0.31596  -0.18382
C          C       0.36851   0.83305   0.32411  -0.18758
C          C       0.13912   0.39504   0.30795  -0.11625
C          C       0.86508   0.60464   0.30658  -0.11574
C          C       0.60618   0.13774   0.31034  -0.11622
C          C       0.39906   0.86168   0.31473  -0.11627
C          C       0.84174   0.67146   0.22635   0.20392
C          C       0.15972   0.32751   0.23030   0.20314
C          C       0.33132   0.83981   0.24486   0.20478
C          C       0.67295   0.16073   0.23356   0.20489
C          C       0.21067   0.68711   0.25031   0.07776
C          C       0.79415   0.31364   0.23176   0.07481
C          C       0.31250   0.20543   0.23741   0.07538
C          C       0.68905   0.79143   0.24185   0.07600
C          C       0.75347   0.32548   0.22546  -0.13758
C          C       0.25030   0.67579   0.21359  -0.14066
C          C       0.67702   0.75075   0.24810  -0.13862
C          C       0.32391   0.24629   0.23748  -0.13671
C          C       0.72280   0.29690   0.22999  -0.12821
C          C       0.28101   0.70439   0.21083  -0.13083
C          C       0.70542   0.71988   0.24806  -0.12910
C          C       0.29508   0.27673   0.23788  -0.12821
C          C       0.73161   0.25546   0.24181   0.05241
C          C       0.27317   0.74496   0.24699   0.04774
C          C       0.74678   0.72864   0.24179   0.05064
C          C       0.25372   0.26761   0.23903   0.05247
C          C       0.77228   0.24348   0.25152  -0.09405
C          C       0.23371   0.75615   0.28813  -0.09363
C          C       0.75898   0.76929   0.23650  -0.09377
C          C       0.24210   0.22675   0.24135  -0.09373
C          C       0.80278   0.27204   0.24590  -0.13566
C          C       0.20306   0.72774   0.28826  -0.13540
C          C       0.73066   0.79992   0.23679  -0.13404
C          C       0.27095   0.19647   0.23983  -0.13436
C          C       0.77622   0.69621   0.23675   0.06959
C          C       0.22450   0.30045   0.23386   0.07243
C          C       0.30546   0.77466   0.23663   0.06916
C          C       0.69888   0.22613   0.23791   0.07009
C          C       0.87267   0.52495   0.62798  -0.19178
C          C       0.12264   0.47418   0.63971  -0.18923
C          C       0.47246   0.87475   0.64261  -0.19094
C          C       0.52385   0.12482   0.63444  -0.19035
C          C       0.87132   0.48390   0.62632  -0.19397
C          C       0.12405   0.51521   0.64027  -0.19142
C          C       0.51342   0.87337   0.63998  -0.19135
C          C       0.48291   0.12656   0.63857  -0.19432
C          C       0.91114   0.46986   0.67678   0.19139
C          C       0.08432   0.52886   0.68945   0.19323
C          C       0.52747   0.91314   0.68831   0.19340
C          C       0.46926   0.08672   0.69058   0.19123
C          C       0.91330   0.53579   0.67937   0.19226
C          C       0.08206   0.46301   0.68844   0.19203
C          C       0.46172   0.91545   0.69097   0.19034
C          C       0.53491   0.08408   0.68578   0.19184
C          C       0.02297   0.62244   0.80181  -0.19087
C          C       0.97225   0.37485   0.78777  -0.19160
C          C       0.37545   0.02534   0.80576  -0.19405
C          C       0.62169   0.97382   0.80464  -0.19147
C          C       0.98159   0.62429   0.79836  -0.19090
C          C       0.01367   0.37317   0.79125  -0.19011
C          C       0.37353   0.98386   0.80523  -0.19074
C          C       0.62344   0.01530   0.80439  -0.19148
C          C       0.96653   0.58658   0.74067   0.18421
C          C       0.02878   0.41158   0.73928   0.18306
C          C       0.41122   0.96883   0.74888   0.18268
C          C       0.58556   0.03049   0.74647   0.18352
C          C       0.03485   0.58359   0.74541   0.18494
C          C       0.96045   0.41438   0.73381   0.18195
C          C       0.41441   0.03726   0.74988   0.18269
C          C       0.58265   0.96215   0.74694   0.18375
C          C       0.92602   0.57578   0.71069  -0.07112
C          C       0.06931   0.42277   0.71542  -0.07029
C          C       0.42182   0.92828   0.72033  -0.07002
C          C       0.57487   0.07107   0.71608  -0.06854
C          C       0.07438   0.56965   0.71891  -0.07302
C          C       0.92100   0.42878   0.70512  -0.07449
C          C       0.42862   0.07685   0.72212  -0.07522
C          C       0.56840   0.92279   0.71776  -0.07371
C          C       0.89574   0.60851   0.71697   0.06785
C          C       0.09987   0.39028   0.71926   0.06894
C          C       0.38883   0.89816   0.72301   0.06836
C          C       0.60770   0.10108   0.71872   0.06611
C          C       0.88814   0.39860   0.70908   0.07885
C          C       0.10703   0.60003   0.72428   0.07873
C          C       0.59850   0.88993   0.72437   0.07891
C          C       0.39876   0.10991   0.72697   0.08052
C          C       0.14332   0.59259   0.80911  -0.12357
C          C       0.85288   0.40553   0.79791  -0.12294
C          C       0.40626   0.14525   0.81531  -0.12552
C          C       0.59096   0.85391   0.81084  -0.12577
C          C       0.17402   0.62114   0.81266  -0.13491
C          C       0.82197   0.37725   0.80264  -0.13732
C          C       0.37820   0.17636   0.81921  -0.13311
C          C       0.61949   0.82328   0.82054  -0.13319
C          C       0.16944   0.65887   0.73494   0.05476
C          C       0.82518   0.34044   0.72066   0.05375
C          C       0.34117   0.17359   0.73557   0.05176
C          C       0.65710   0.82728   0.74491   0.05374
C          C       0.13319   0.66653   0.65068  -0.13751
C          C       0.86047   0.33325   0.63276  -0.13705
C          C       0.33365   0.13822   0.64757  -0.13371
C          C       0.66452   0.86301   0.65643  -0.13696
C          C       0.10293   0.63760   0.64428  -0.12846
C          C       0.89108   0.36183   0.62613  -0.12912
C          C       0.36179   0.10724   0.64310  -0.12888
C          C       0.63587   0.89356   0.64631  -0.12646
C          C       0.09400   0.35430   0.63297  -0.12485
C          C       0.90256   0.64628   0.64171  -0.11993
C          C       0.64449   0.09370   0.64060  -0.12084
C          C       0.35206   0.90564   0.64098  -0.12267
C          C       0.12252   0.32365   0.63655  -0.15679
C          C       0.87534   0.67785   0.65585  -0.16174
C          C       0.67594   0.12121   0.64717  -0.16221
C          C       0.32023   0.87851   0.64774  -0.16228
C          C       0.16458   0.36361   0.81362  -0.18027
C          C       0.83184   0.63481   0.81532  -0.18355
C          C       0.63477   0.16573   0.80675  -0.18518
C          C       0.36083   0.83382   0.81561  -0.18684
C          C       0.13580   0.39407   0.81001  -0.11738
C          C       0.85970   0.60366   0.80370  -0.11846
C          C       0.60378   0.13756   0.80297  -0.11725
C          C       0.39230   0.86156   0.81042  -0.11646
C          C       0.83919   0.67256   0.74102   0.20513
C          C       0.15865   0.32790   0.72530   0.20222
C          C       0.32417   0.84177   0.73376   0.20613
C          C       0.67131   0.15816   0.72716   0.20628
C          C       0.20167   0.68939   0.73997   0.07555
C          C       0.79258   0.31037   0.72531   0.07623
C          C       0.31118   0.20631   0.73969   0.07546
C          C       0.68747   0.79499   0.75601   0.07507
C          C       0.75198   0.32238   0.71999  -0.13715
C          C       0.24218   0.67810   0.72307  -0.13657
C          C       0.67582   0.75421   0.76181  -0.13568
C          C       0.32285   0.24672   0.76123  -0.13728
C          C       0.72126   0.29387   0.71995  -0.12927
C          C       0.27254   0.70699   0.72279  -0.12638
C          C       0.70445   0.72362   0.76343  -0.12817
C          C       0.29437   0.27748   0.76317  -0.13005
C          C       0.73015   0.25242   0.72578   0.05196
C          C       0.26359   0.74817   0.74049   0.05093
C          C       0.74580   0.73265   0.76166   0.05381
C          C       0.25312   0.26905   0.74368   0.05228
C          C       0.77076   0.24022   0.73317  -0.09456
C          C       0.22312   0.75957   0.76102  -0.09632
C          C       0.75770   0.77342   0.76192  -0.09333
C          C       0.24123   0.22865   0.72271  -0.09505
C          C       0.80129   0.26873   0.73296  -0.13415
C          C       0.19283   0.73067   0.75982  -0.13773
C          C       0.72904   0.80387   0.75814  -0.13669
C          C       0.26969   0.19808   0.72108  -0.13430
C          C       0.77481   0.69985   0.75274   0.07012
C          C       0.22394   0.30185   0.74228   0.06935
C          C       0.29632   0.77742   0.73218   0.07178
C          C       0.69752   0.22315   0.72127   0.07033
N          N       0.94089   0.50319   0.20918  -0.40352
N          N       0.06286   0.49860   0.21873  -0.40439
N          N       0.50031   0.93853   0.21350  -0.40392
N          N       0.50426   0.06099   0.21501  -0.40534
N          N       0.00512   0.56445   0.22167  -0.25606
N          N       0.99859   0.43752   0.21777  -0.25497
N          N       0.43884   0.00246   0.21962  -0.25561
N          N       0.56591   0.99709   0.21599  -0.25759
N          N       0.81433   0.70341   0.22597  -0.28483
N          N       0.18604   0.29451   0.23113  -0.28560
N          N       0.29906   0.81281   0.25224  -0.27735
N          N       0.70532   0.18772   0.23622  -0.28351
N          N       0.93655   0.50188   0.70181  -0.40407
N          N       0.05889   0.49669   0.71186  -0.40382
N          N       0.49559   0.93865   0.71204  -0.40433
N          N       0.50126   0.06102   0.71209  -0.40237
N          N      -0.00022   0.56266   0.71423  -0.25633
N          N       0.99558   0.43573   0.71004  -0.25614
N          N       0.43524   0.00210   0.72120  -0.25732
N          N       0.56154   0.99734   0.71842  -0.25451
N          N       0.81325   0.70571   0.75021  -0.28604
N          N       0.18578   0.29563   0.72275  -0.28654
N          N       0.29081   0.81594   0.73843  -0.28469
N          N       0.70395   0.18474   0.72692  -0.28471

