data_crystal

_audit_creation_method 'AiiDA-DDEC plugin'

_cell_length_a        22.83245
_cell_length_b        21.83720
_cell_length_c         8.02402

_cell_angle_alpha     84.07895
_cell_angle_beta     63.22381
_cell_angle_gamma     118.77195

_symmetry_space_group_name_Hall 'P 1'
_symmetry_space_group_name_H-M  'P 1'

loop_
_symmetry_equiv_pos_as_xyz
 'x,y,z'

loop_
_atom_site_label
_atom_site_type_symbol
_atom_site_fract_x
_atom_site_fract_y
_atom_site_fract_z
_atom_site_charge
H          H       0.82004   0.35726   0.27254   0.27104
H          H       0.62637   0.47460   0.24771   0.27545
H          H       0.80653   0.48562   0.26688   0.10134
H          H       0.90546   0.55379   0.28108   0.12456
H          H       0.92945   0.36991   0.26811   0.12844
H          H       0.62235   0.06092   0.24193   0.11768
H          H       0.42883   0.05603   0.26234   0.11510
H          H       0.65038   0.16495   0.28061   0.07734
H          H       0.54179   0.24362   0.24914   0.10940
H          H       0.51109   0.33372   0.24260   0.09537
H          H       0.60721   0.57360   0.23790   0.12437
H          H       0.53151   0.62293   0.22453   0.11305
H          H       0.36572   0.41393   0.22638   0.12106
H          H       0.44136   0.36400   0.23769   0.11205
H          H       0.42812   0.62343   0.34072   0.06562
H          H       0.42293   0.72496   0.29315   0.11676
H          H       0.13763   0.50766   0.31410   0.04170
H          H       0.22550   0.50318   0.18623   0.35560
H          H       0.25437   0.76764   0.26527   0.35500
H          H       0.03430   0.62974   0.25739   0.12130
H          H       0.05643   0.44527   0.24839   0.10396
H          H       0.35672   0.84048   0.18652   0.04499
H          H       0.36206   0.92184   0.29586   0.10451
H          H       0.55756   0.92759   0.26698   0.11888
H          H       0.82315   0.34199   0.76715   0.29486
H          H       0.68178   0.48838   0.75726   0.30213
H          H       0.83480   0.49591   0.77190   0.09104
H          H       0.93255   0.56326   0.77898   0.11891
H          H       0.95941   0.38184   0.75011   0.12366
H          H       0.63602   0.06829   0.77884   0.11185
H          H       0.45818   0.07299   0.72979   0.11698
H          H       0.67966   0.17965   0.75069   0.07678
H          H       0.56958   0.25967   0.73945   0.11190
H          H       0.54526   0.35331   0.71713   0.07862
H          H       0.63818   0.58949   0.71683   0.11645
H          H       0.56209   0.63794   0.69804   0.11256
H          H       0.39084   0.42286   0.73392   0.12057
H          H       0.46534   0.37347   0.75709   0.10602
H          H       0.45740   0.63624   0.82548   0.06295
H          H       0.45604   0.74110   0.76304   0.11868
H          H       0.15500   0.51562   0.84828   0.04195
H          H       0.24208   0.50932   0.71454   0.35231
H          H       0.25323   0.75508   0.86234   0.36352
H          H       0.06165   0.63979   0.75151   0.12018
H          H       0.08872   0.45877   0.72316   0.10557
H          H       0.37208   0.84596   0.70147   0.05305
H          H       0.39736   0.94275   0.73740   0.10590
H          H       0.57380   0.93683   0.79198   0.11650
C          C       0.51093   0.56594   0.22937  -0.15181
C          C       0.46091   0.42019   0.23793  -0.18415
C          C       0.55419   0.53869   0.23533  -0.16334
C          C       0.41813   0.44777   0.23156  -0.13242
C          C       0.52959   0.46552   0.23956   0.19550
C          C       0.44138   0.52053   0.22982   0.19559
C          C       0.39299   0.59463   0.27940   0.09460
C          C       0.56199   0.37387   0.24709   0.08353
C          C       0.34724   0.62257   0.27085  -0.08479
C          C       0.61121   0.35412   0.25236  -0.12681
C          C       0.28123   0.58474   0.25165   0.25612
C          C       0.68081   0.40701   0.25511   0.33000
C          C       0.41984   0.95216   0.27955  -0.17969
C          C       0.56620   0.03132   0.25008  -0.16048
C          C       0.45627   0.02690   0.26286  -0.13856
C          C       0.53019   0.95663   0.26442  -0.14519
C          C       0.52960   0.06816   0.24919   0.20385
C          C       0.45712   0.91582   0.27660   0.19190
C          C       0.37372   0.80851   0.24476   0.08781
C          C       0.61559   0.18263   0.26080   0.11327
C          C       0.33871   0.73079   0.25725  -0.08729
C          C       0.63801   0.25729   0.25895  -0.08900
C          C       0.37238   0.69406   0.27866  -0.09536
C          C       0.59334   0.28229   0.25386  -0.09144
C          C       0.02381   0.46954   0.25622  -0.16053
C          C       0.93823   0.52983   0.27386  -0.17839
C          C       0.95242   0.42673   0.26740  -0.15821
C          C       0.01012   0.57254   0.26058  -0.13049
C          C       0.90944   0.45672   0.27376   0.20352
C          C       0.05458   0.54382   0.25156   0.19854
C          C       0.16457   0.56918   0.26233   0.08774
C          C       0.79362   0.43060   0.26800   0.11764
C          C       0.23996   0.61656   0.24709  -0.18564
C          C       0.72772   0.38094   0.26169  -0.23670
C          C       0.27147   0.69113   0.24431   0.28638
C          C       0.70850   0.30676   0.26154   0.33376
C          C       0.54029   0.57978   0.71250  -0.16687
C          C       0.48744   0.43154   0.74383  -0.17921
C          C       0.58362   0.55311   0.72162  -0.15268
C          C       0.44469   0.45848   0.73263  -0.14002
C          C       0.55805   0.47853   0.73807   0.19703
C          C       0.46909   0.53254   0.72088   0.20100
C          C       0.42190   0.60739   0.76537   0.10123
C          C       0.59170   0.39159   0.73927   0.09686
C          C       0.37642   0.63579   0.75777  -0.07413
C          C       0.63870   0.36781   0.75174  -0.12715
C          C       0.30706   0.59550   0.75252   0.23779
C          C       0.70607   0.41622   0.75995   0.28979
C          C       0.44949   0.96936   0.74681  -0.17439
C          C       0.58450   0.04172   0.76731  -0.16642
C          C       0.48331   0.04260   0.74191  -0.14504
C          C       0.54992   0.96800   0.77502  -0.13902
C          C       0.55134   0.08066   0.75199   0.20455
C          C       0.48227   0.93021   0.76384   0.18385
C          C       0.39648   0.81939   0.74405   0.07187
C          C       0.64097   0.19594   0.75219   0.11993
C          C       0.36439   0.74200   0.75501  -0.08717
C          C       0.66429   0.27056   0.75468  -0.07994
C          C       0.40272   0.70823   0.76005  -0.11490
C          C       0.62032   0.29695   0.74830  -0.08349
C          C       0.05390   0.48127   0.73990  -0.16716
C          C       0.96584   0.53956   0.76859  -0.17042
C          C       0.98176   0.43800   0.75379  -0.15912
C          C       0.03828   0.58295   0.75245  -0.12669
C          C       0.93668   0.46637   0.76635   0.21242
C          C       0.08361   0.55484   0.73972   0.18784
C          C       0.18801   0.57799   0.77342   0.07670
C          C       0.82210   0.44104   0.76958   0.11528
C          C       0.26427   0.62597   0.75465  -0.17703
C          C       0.75321   0.39214   0.76493  -0.21178
C          C       0.29291   0.69902   0.76033   0.28386
C          C       0.73203   0.31902   0.76163   0.29869
N          N       0.39351   0.54180   0.22159  -0.28230
N          N       0.57500   0.44051   0.24591  -0.21660
N          N       0.42596   0.84108   0.28917  -0.29158
N          N       0.55660   0.14142   0.24214  -0.32736
N          N       0.12755   0.59386   0.23059  -0.27832
N          N       0.84001   0.41183   0.27602  -0.22476
N          N       0.42133   0.55363   0.71038  -0.28413
N          N       0.60452   0.45573   0.75042  -0.30041
N          N       0.45247   0.85563   0.77542  -0.30170
N          N       0.57744   0.15327   0.75137  -0.32036
N          N       0.15697   0.60442   0.71731  -0.25329
N          N       0.86721   0.42000   0.76871  -0.30133
O          O       0.25763   0.51544   0.24254  -0.41052
O          O       0.69849   0.47199   0.25438  -0.47630
O          O       0.23384   0.72300   0.23376  -0.41048
O          O       0.75217   0.28636   0.26143  -0.45561
O          O       0.28090   0.52471   0.75090  -0.41086
O          O       0.72564   0.48478   0.75919  -0.41191
O          O       0.24715   0.72468   0.78247  -0.41350
O          O       0.77649   0.29644   0.76360  -0.40171

