data_crystal

_audit_creation_method 'AiiDA-DDEC plugin'

_cell_length_a        15.42674
_cell_length_b        14.96265
_cell_length_c        19.66303

_cell_angle_alpha     89.95259
_cell_angle_beta     90.06707
_cell_angle_gamma     91.39072

_symmetry_space_group_name_Hall 'P 1'
_symmetry_space_group_name_H-M  'P 1'

loop_
_symmetry_equiv_pos_as_xyz
 'x,y,z'

loop_
_atom_site_label
_atom_site_type_symbol
_atom_site_fract_x
_atom_site_fract_y
_atom_site_fract_z
_atom_site_charge
H          H       0.43093   0.71706   0.66625   0.11643
H          H       0.57214   0.27706   0.66167   0.11580
H          H       0.80110   0.93187   0.17158   0.11382
H          H       0.20769   0.07143   0.16424   0.11358
H          H       0.06298   0.79473   0.82262   0.11435
H          H       0.93496   0.20722   0.82704   0.11410
H          H       0.71071   0.56672   0.33794   0.11351
H          H       0.28546   0.43535   0.33857   0.11469
H          H       0.52913   0.64564   0.58366   0.11190
H          H       0.47277   0.34867   0.57985   0.11319
H          H       0.87760   0.03356   0.09062   0.11202
H          H       0.13369   0.96795   0.08287   0.11345
H          H       0.96503   0.86482   0.90606   0.11635
H          H       0.03308   0.13224   0.90787   0.11201
H          H       0.63790   0.46848   0.42302   0.11509
H          H       0.35792   0.53157   0.42533   0.11241
H          H       0.33014   0.44817   0.53812   0.11359
H          H       0.66817   0.55118   0.53774   0.11348
H          H       0.02652   0.81408   0.01773   0.11275
H          H       0.96338   0.17730   0.02317   0.11251
H          H       0.17422   0.03976   0.97147   0.11233
H          H       0.82065   0.96442   0.97714   0.11337
H          H       0.46417   0.67907   0.47299   0.11318
H          H       0.54145   0.32551   0.46423   0.11273
H          H       0.23460   0.51645   0.62292   0.10983
H          H       0.76564   0.48180   0.62073   0.11002
H          H       0.95105   0.71331   0.09902   0.10924
H          H       0.03386   0.27863   0.10659   0.10948
H          H       0.27087   0.97110   0.88748   0.10865
H          H       0.72379   0.03668   0.89480   0.10972
H          H       0.53626   0.77657   0.38776   0.10888
H          H       0.47027   0.23087   0.37702   0.11135
H          H       0.20174   0.63042   0.70419   0.08350
H          H       0.80049   0.36658   0.70066   0.08353
H          H       0.84452   0.68372   0.18755   0.08394
H          H       0.14075   0.31078   0.19443   0.08415
H          H       0.30029   0.86641   0.79939   0.08313
H          H       0.69631   0.14028   0.80474   0.08301
H          H       0.64699   0.80628   0.30296   0.08341
H          H       0.35850   0.20125   0.29397   0.08308
C          C       0.32544   0.62257   0.64973   0.05685
C          C       0.67645   0.37343   0.64633   0.05727
C          C       0.86855   0.81475   0.13939   0.05693
C          C       0.12689   0.18258   0.14048   0.05714
C          C       0.17444   0.87651   0.85026   0.05507
C          C       0.82209   0.12784   0.85557   0.05682
C          C       0.62826   0.67835   0.35646   0.05588
C          C       0.37207   0.32597   0.35211   0.05715
C          C       0.40963   0.65807   0.63797  -0.10828
C          C       0.59272   0.33684   0.63401  -0.10740
C          C       0.84926   0.90641   0.13669  -0.10693
C          C       0.15429   0.09385   0.13287  -0.10642
C          C       0.08696   0.84769   0.85602  -0.10631
C          C       0.91034   0.15435   0.86029  -0.10608
C          C       0.65653   0.59058   0.36763  -0.10480
C          C       0.34143   0.41198   0.36651  -0.10547
C          C       0.46382   0.61840   0.59111  -0.13497
C          C       0.53766   0.37691   0.58778  -0.13697
C          C       0.89204   0.96274   0.09114  -0.13322
C          C       0.11312   0.03675   0.08690  -0.13376
C          C       0.03274   0.88672   0.90322  -0.13649
C          C       0.96476   0.11253   0.90591  -0.13333
C          C       0.61563   0.53615   0.41543  -0.13724
C          C       0.38198   0.46509   0.41548  -0.13385
C          C       0.43594   0.54351   0.55270   0.07047
C          C       0.56417   0.45367   0.55096   0.06975
C          C       0.95470   0.93058   0.04560   0.07051
C          C       0.04494   0.06600   0.04517   0.06934
C          C       0.06341   0.95489   0.94730   0.06943
C          C       0.93373   0.04417   0.94968   0.06958
C          C       0.54590   0.56662   0.45481   0.07117
C          C       0.45355   0.43473   0.45300   0.07068
C          C       0.35312   0.50694   0.56578  -0.14725
C          C       0.64660   0.49099   0.56435  -0.14687
C          C       0.97617   0.84040   0.05011  -0.14856
C          C       0.01699   0.15358   0.05355  -0.14850
C          C       0.14941   0.98543   0.93983  -0.14835
C          C       0.84635   0.01759   0.94473  -0.14808
C          C       0.51795   0.65371   0.44374  -0.15043
C          C       0.48520   0.35021   0.43745  -0.14887
C          C       0.29888   0.54558   0.61368  -0.12408
C          C       0.70187   0.45159   0.61121  -0.12521
C          C       0.93363   0.78330   0.09628  -0.12536
C          C       0.05705   0.21094   0.10067  -0.12581
C          C       0.20403   0.94689   0.89213  -0.12306
C          C       0.79147   0.05860   0.89818  -0.12517
C          C       0.55866   0.70886   0.39543  -0.12226
C          C       0.44506   0.29668   0.38787  -0.12607
C          C       0.26507   0.66369   0.69636   0.04003
C          C       0.73683   0.33358   0.69374   0.03888
C          C       0.82416   0.75343   0.18595   0.03986
C          C       0.16772   0.24410   0.18874   0.03961
C          C       0.23503   0.83612   0.80340   0.04081
C          C       0.76253   0.16829   0.80783   0.03961
C          C       0.66922   0.73741   0.30658   0.03959
C          C       0.33077   0.26718   0.30220   0.03882
C          C       0.49959   0.49959   0.50314   0.00357
C          C      -0.00060  -0.00160   0.99693   0.00390
N          N       0.28353   0.73834   0.72755  -0.18785
N          N       0.71722   0.26118   0.72748  -0.18660
N          N       0.76199   0.77973   0.22522  -0.18722
N          N       0.23453   0.22150   0.22464  -0.18679
N          N       0.21458   0.76520   0.76814  -0.18749
N          N       0.78548   0.23539   0.76925  -0.18687
N          N       0.73110   0.71079   0.26720  -0.18612
N          N       0.26252   0.29008   0.26808  -0.18590

