data_crystal

_audit_creation_method 'AiiDA-DDEC plugin'

_cell_length_a        39.69274
_cell_length_b        40.02897
_cell_length_c         7.97873

_cell_angle_alpha     108.22596
_cell_angle_beta     62.28143
_cell_angle_gamma     120.37725

_symmetry_space_group_name_Hall 'P 1'
_symmetry_space_group_name_H-M  'P 1'

loop_
_symmetry_equiv_pos_as_xyz
 'x,y,z'

loop_
_atom_site_label
_atom_site_type_symbol
_atom_site_fract_x
_atom_site_fract_y
_atom_site_fract_z
_atom_site_charge
H          H       0.76104   0.42772   0.19025   0.10916
H          H       0.57842   0.33027   0.17953   0.11161
H          H       0.67136   0.24821   0.24890   0.11095
H          H       0.24242   0.57871   0.32295   0.10991
H          H       0.42742   0.67812   0.29713   0.11040
H          H       0.33198   0.75628   0.21810   0.11065
H          H       0.83422   0.45982   0.17930   0.10430
H          H       0.54458   0.36917   0.19168   0.10786
H          H       0.63212   0.17711   0.25951   0.10671
H          H       0.16879   0.54502   0.34012   0.10506
H          H       0.46128   0.63983   0.29254   0.10609
H          H       0.36952   0.82749   0.21130   0.10543
H          H       0.81853   0.35235   0.27922   0.12167
H          H       0.64785   0.47439   0.28605   0.12058
H          H       0.52965   0.17999   0.21496   0.11936
H          H       0.18214   0.64921   0.21557   0.12187
H          H       0.35318   0.53390   0.25345   0.12158
H          H       0.47006   0.82810   0.29013   0.11954
H          H       0.74489   0.32003   0.28468   0.11201
H          H       0.68214   0.43442   0.26910   0.11202
H          H       0.56966   0.25248   0.20829   0.11101
H          H       0.25641   0.68336   0.20417   0.11268
H          H       0.31931   0.57317   0.25857   0.11058
H          H       0.43153   0.75549   0.29473   0.11133
H          H       0.88413   0.48217   0.26536   0.07486
H          H       0.52991   0.40797   0.14909   0.07534
H          H       0.59412   0.11980   0.27555   0.07979
H          H       0.11908   0.52001   0.25233   0.07926
H          H       0.47409   0.60245   0.36186   0.07633
H          H       0.40368   0.88556   0.22553   0.08332
H          H       0.95801   0.53779   0.26216   0.14109
H          H       0.47383   0.42537   0.15592   0.14071
H          H       0.57885   0.04735   0.26094   0.14548
H          H       0.04481   0.46255   0.24891   0.14118
H          H       0.53004   0.58490   0.36371   0.14136
H          H       0.41856   0.95843   0.23781   0.14403
H          H       0.75641   0.42200   0.68530   0.10976
H          H       0.57431   0.32125   0.68129   0.11121
H          H       0.67225   0.24170   0.72598   0.11184
H          H       0.23866   0.57338   0.82448   0.11182
H          H       0.42453   0.66992   0.79561   0.11120
H          H       0.32865   0.75300   0.76865   0.11085
H          H       0.82931   0.45680   0.67845   0.10499
H          H       0.53956   0.35894   0.68997   0.10810
H          H       0.63477   0.16978   0.71875   0.10759
H          H       0.16529   0.54128   0.83899   0.10399
H          H       0.45729   0.63116   0.79614   0.10659
H          H       0.36772   0.82471   0.77072   0.10901
H          H       0.81824   0.35195   0.78327   0.12037
H          H       0.64207   0.46551   0.78020   0.12204
H          H       0.52741   0.17289   0.72486   0.12295
H          H       0.18221   0.64709   0.71426   0.12188
H          H       0.34896   0.52579   0.75509   0.12067
H          H       0.47499   0.81887   0.74823   0.12009
H          H       0.74470   0.31677   0.78514   0.11220
H          H       0.67736   0.42676   0.76727   0.11315
H          H       0.56608   0.24563   0.72849   0.11187
H          H       0.25602   0.67956   0.70578   0.11533
H          H       0.31589   0.56556   0.75700   0.11114
H          H       0.43490   0.74620   0.74837   0.11036
H          H       0.88134   0.48169   0.75523   0.07796
H          H       0.52499   0.39756   0.64262   0.07476
H          H       0.58779   0.11641   0.83033   0.08166
H          H       0.11469   0.51781   0.75604   0.07796
H          H       0.47004   0.59363   0.86301   0.07540
H          H       0.41533   0.87804   0.65904   0.08128
H          H       0.95608   0.53831   0.75513   0.14136
H          H       0.46813   0.41567   0.64860   0.14041
H          H       0.57466   0.04388   0.82392   0.14012
H          H       0.04069   0.46212   0.75444   0.14208
H          H       0.52532   0.57500   0.86598   0.14042
H          H       0.42877   0.95007   0.66780   0.14301
C          C       0.35209   0.65082   0.27387   0.37437
C          C       0.35601   0.70886   0.26167   0.38062
C          C       0.29681   0.65302   0.26316   0.37266
C          C       0.65144   0.35643   0.22284   0.37211
C          C       0.64696   0.29747   0.22498   0.37430
C          C       0.70601   0.35283   0.23280   0.37298
C          C       0.74848   0.37194   0.23783  -0.00344
C          C       0.63240   0.37991   0.22293   0.00133
C          C       0.62316   0.25491   0.22722  -0.00305
C          C       0.25403   0.63301   0.26144  -0.00376
C          C       0.37121   0.62804   0.27927  -0.00594
C          C       0.37922   0.75140   0.25772  -0.00323
C          C       0.77393   0.41168   0.21124  -0.08496
C          C       0.59341   0.36187   0.20177  -0.09424
C          C       0.64038   0.23297   0.24058  -0.08735
C          C       0.22907   0.59364   0.29698  -0.08324
C          C       0.41138   0.64654   0.28894  -0.09092
C          C       0.36208   0.77236   0.23531  -0.09153
C          C       0.81473   0.42944   0.20653  -0.17705
C          C       0.57470   0.38392   0.20869  -0.18205
C          C       0.61810   0.19301   0.24620  -0.17533
C          C       0.18801   0.57495   0.30501  -0.17730
C          C       0.43005   0.62491   0.28659  -0.18564
C          C       0.38342   0.81240   0.23196  -0.17376
C          C       0.83134   0.40805   0.23036   0.21511
C          C       0.59452   0.42502   0.23689   0.21168
C          C       0.57761   0.17334   0.23784   0.20928
C          C       0.17066   0.59493   0.27572   0.21655
C          C       0.40883   0.58383   0.27635   0.21276
C          C       0.42285   0.83305   0.25174   0.20469
C          C       0.80560   0.36834   0.25807  -0.14749
C          C       0.63333   0.44281   0.26016  -0.14682
C          C       0.56067   0.19541   0.22300  -0.15210
C          C       0.19576   0.63434   0.24030  -0.15120
C          C       0.36877   0.56553   0.26504  -0.14864
C          C       0.43983   0.81189   0.27392  -0.14966
C          C       0.76483   0.35058   0.26207  -0.09542
C          C       0.65221   0.42076   0.25130  -0.08857
C          C       0.58291   0.23551   0.21861  -0.09352
C          C       0.23686   0.65308   0.23310  -0.09482
C          C       0.35009   0.58719   0.26812  -0.08300
C          C       0.41846   0.77172   0.27670  -0.09296
C          C       0.89466   0.46008   0.24640   0.05487
C          C       0.54654   0.43811   0.20270   0.07248
C          C       0.56429   0.11015   0.26023   0.06483
C          C       0.10785   0.54120   0.26591   0.05038
C          C       0.45713   0.57190   0.31405   0.06567
C          C       0.43407   0.89588   0.23703   0.05945
C          C       0.93595   0.47502   0.24592  -0.00597
C          C       0.53003   0.46431   0.22249  -0.00078
C          C       0.53857   0.06906   0.25766  -0.01088
C          C       0.06655   0.52530   0.26500  -0.00596
C          C       0.47328   0.54589   0.30052  -0.00079
C          C       0.45932   0.93706   0.23880  -0.01558
C          C       0.96437   0.51406   0.25723  -0.20143
C          C       0.49328   0.45476   0.19976  -0.19628
C          C       0.54927   0.04057   0.25476  -0.20587
C          C       0.03832   0.48617   0.25328  -0.20233
C          C       0.50997   0.55542   0.32394  -0.19899
C          C       0.44844   0.96544   0.24176  -0.20067
C          C       0.00123   0.48199   0.24992  -0.01255
C          C       0.51703   0.52234   0.28930  -0.02292
C          C       0.48110   0.00304   0.24708  -0.01612
C          C       0.00149   0.51806   0.25902  -0.01679
C          C       0.48569   0.48767   0.23853  -0.02421
C          C       0.51683   0.00302   0.24645  -0.02132
C          C       0.34962   0.64357   0.77166   0.36927
C          C       0.35507   0.70245   0.76095   0.37062
C          C       0.29493   0.64742   0.76433   0.37189
C          C       0.64769   0.34899   0.72427   0.36798
C          C       0.64459   0.29082   0.72843   0.37590
C          C       0.70337   0.34689   0.73139   0.37468
C          C       0.74595   0.36728   0.73621  -0.00583
C          C       0.62808   0.37165   0.72218   0.00061
C          C       0.62147   0.24818   0.72894  -0.00639
C          C       0.25208   0.62839   0.76314  -0.00036
C          C       0.36812   0.62019   0.77735   0.00474
C          C       0.37929   0.74497   0.75693  -0.00316
C          C       0.77015   0.40710   0.70869  -0.08432
C          C       0.58903   0.35288   0.70109  -0.09401
C          C       0.64046   0.22629   0.72634  -0.08883
C          C       0.22610   0.58906   0.79823  -0.09057
C          C       0.40814   0.63834   0.78824  -0.09428
C          C       0.36082   0.76770   0.76314  -0.08896
C          C       0.81088   0.42638   0.70581  -0.17665
C          C       0.56977   0.37426   0.70640  -0.18561
C          C       0.61909   0.18609   0.72437  -0.18157
C          C       0.18513   0.57126   0.80512  -0.17492
C          C       0.42624   0.61644   0.78848  -0.18088
C          C       0.38303   0.80783   0.76282  -0.18096
C          C       0.82879   0.40651   0.73173   0.21604
C          C       0.58919   0.41541   0.73307   0.21201
C          C       0.57762   0.16639   0.72708   0.21154
C          C       0.16873   0.59211   0.77546   0.21401
C          C       0.40475   0.57540   0.77840   0.21235
C          C       0.42486   0.82671   0.75486   0.21291
C          C       0.80431   0.36672   0.76030  -0.14743
C          C       0.62809   0.43391   0.75587  -0.14779
C          C       0.55897   0.18843   0.72704  -0.15416
C          C       0.19488   0.63147   0.74026  -0.14556
C          C       0.36481   0.55741   0.76605  -0.14904
C          C       0.44307   0.80385   0.75052  -0.15469
C          C       0.76358   0.34739   0.76237  -0.09529
C          C       0.64748   0.41252   0.74870  -0.08914
C          C       0.58044   0.22866   0.72889  -0.09281
C          C       0.23585   0.64930   0.73424  -0.10072
C          C       0.34660   0.57936   0.76724  -0.08750
C          C       0.42081   0.76369   0.75071  -0.09016
C          C       0.89201   0.46013   0.74263   0.05258
C          C       0.54096   0.42779   0.69732   0.06653
C          C       0.56261   0.10465   0.77579   0.06803
C          C       0.10477   0.53983   0.76705   0.05417
C          C       0.45299   0.56315   0.81481   0.06924
C          C       0.44070   0.88912   0.71147   0.06927
C          C       0.93328   0.47551   0.74376  -0.00417
C          C       0.52450   0.45390   0.71590  -0.00248
C          C       0.53880   0.06317   0.76630  -0.01640
C          C       0.06357   0.52493   0.76605  -0.00684
C          C       0.46913   0.53687   0.79776   0.00055
C          C       0.46458   0.93054   0.72435  -0.01717
C          C       0.96202   0.51451   0.75314  -0.20297
C          C       0.48798   0.44489   0.69231  -0.19653
C          C       0.54787   0.03588   0.78981  -0.19986
C          C       0.03481   0.48596   0.75642  -0.20464
C          C       0.50550   0.54581   0.82195  -0.19695
C          C       0.45548   0.95795   0.70239  -0.20330
C          C       0.99801   0.48216   0.75176  -0.01351
C          C       0.51234   0.51246   0.78384  -0.02383
C          C       0.48543   0.99612   0.72832  -0.01876
C          C       0.99887   0.51834   0.75754  -0.01622
C          C       0.48100   0.47816   0.73096  -0.02214
C          C       0.51765   0.99764   0.76657  -0.01566
S          S       0.95496   0.44306   0.23584   0.13308
S          S       0.55580   0.51392   0.28909   0.13378
S          S       0.48823   0.04984   0.25450   0.13741
S          S       0.04756   0.55709   0.27322   0.13425
S          S       0.44694   0.49609   0.23900   0.14382
S          S       0.50976   0.95639   0.24086   0.14329
S          S       0.95161   0.44340   0.73869   0.13315
S          S       0.55067   0.50341   0.78305   0.14218
S          S       0.49284   0.04208   0.71905   0.13832
S          S       0.04531   0.55708   0.77094   0.13322
S          S       0.44278   0.48736   0.73107   0.13046
S          S       0.51039   0.95150   0.77286   0.13321
N          N       0.69025   0.37543   0.22923  -0.41365
N          N       0.62855   0.31747   0.21971  -0.41533
N          N       0.68564   0.31375   0.23061  -0.41420
N          N       0.31285   0.63126   0.27229  -0.41478
N          N       0.37504   0.68966   0.26864  -0.41766
N          N       0.31706   0.69195   0.25830  -0.41844
N          N       0.87171   0.42285   0.22930  -0.29467
N          N       0.57874   0.45021   0.24746  -0.30573
N          N       0.55234   0.13323   0.24212  -0.30318
N          N       0.13005   0.57866   0.27781  -0.29292
N          N       0.42451   0.55904   0.27103  -0.30273
N          N       0.44712   0.87333   0.25120  -0.29986
N          N       0.68681   0.36868   0.72697  -0.41124
N          N       0.62511   0.31008   0.72623  -0.41600
N          N       0.68371   0.30779   0.73017  -0.41822
N          N       0.31027   0.62481   0.77165  -0.41428
N          N       0.37339   0.68232   0.76573  -0.41360
N          N       0.31597   0.68637   0.76010  -0.41565
N          N       0.86928   0.42274   0.73142  -0.29382
N          N       0.57304   0.44025   0.74378  -0.30460
N          N       0.55368   0.12606   0.72460  -0.30057
N          N       0.12830   0.57706   0.77660  -0.29673
N          N       0.42020   0.55046   0.77334  -0.29939
N          N       0.44954   0.86693   0.75772  -0.30105

