data_crystal

_audit_creation_method 'AiiDA-DDEC plugin'

_cell_length_a        51.59880
_cell_length_b        51.58073
_cell_length_c         8.04182

_cell_angle_alpha     78.42039
_cell_angle_beta     73.51877
_cell_angle_gamma     119.97171

_symmetry_space_group_name_Hall 'P 1'
_symmetry_space_group_name_H-M  'P 1'

loop_
_symmetry_equiv_pos_as_xyz
 'x,y,z'

loop_
_atom_site_label
_atom_site_type_symbol
_atom_site_fract_x
_atom_site_fract_y
_atom_site_fract_z
_atom_site_charge
H          H       0.48361   0.56005   0.30243   0.10206
H          H       0.43977   0.92940   0.24869   0.09815
H          H       0.07160   0.51289   0.28846   0.10217
H          H       0.51320   0.44170   0.28667   0.09783
H          H       0.55565   0.07361   0.29746   0.10238
H          H       0.92457   0.48488   0.27455   0.10088
H          H       0.58213   0.60444   0.26730   0.10635
H          H       0.39907   0.98430   0.24296   0.10719
H          H       0.02091   0.42039   0.24835   0.10246
H          H       0.41639   0.39904   0.30442   0.10924
H          H       0.59678   0.01913   0.29853   0.10489
H          H       0.97662   0.57955   0.29147   0.10785
H          H       0.60576   0.57411   0.27077   0.10778
H          H       0.42743   0.03611   0.26007   0.10533
H          H       0.96715   0.39664   0.24708   0.10398
H          H       0.39299   0.42936   0.30176   0.10637
H          H       0.56638   0.96505   0.30349   0.10348
H          H       0.02893   0.60257   0.30481   0.10639
H          H       0.55204   0.47774   0.28190   0.09823
H          H       0.52202   0.07803   0.27675   0.09953
H          H       0.92410   0.44930   0.24594   0.10215
H          H       0.45049   0.52921   0.24049   0.10215
H          H       0.47370   0.92457   0.26861   0.10198
H          H       0.07381   0.55148   0.29203   0.10058
H          H       0.57391   0.47119   0.47474   0.09785
H          H       0.51960   0.11142   0.33579   0.10415
H          H       0.87841   0.40332   0.39385   0.10236
H          H       0.40749   0.52489   0.32874   0.10423
H          H       0.46470   0.87787   0.49120   0.10455
H          H       0.10057   0.58070   0.40972   0.10359
H          H       0.61844   0.46449   0.47536   0.11905
H          H       0.52188   0.15978   0.34626   0.11601
H          H       0.82759   0.35677   0.40596   0.11597
H          H       0.36014   0.52639   0.33525   0.11961
H          H       0.46059   0.82782   0.48631   0.11832
H          H       0.15251   0.62879   0.37922   0.11744
H          H       0.69383   0.56570   0.08542   0.10102
H          H       0.43442   0.12410   0.25402   0.10881
H          H       0.88474   0.32518   0.14450   0.10638
H          H       0.31877   0.43987   0.22237   0.10647
H          H       0.56461   0.88830   0.08044   0.10649
H          H       0.13060   0.69248   0.13059   0.10256
H          H       0.64955   0.57211   0.07850   0.10471
H          H       0.43268   0.07689   0.23511   0.10153
H          H       0.93551   0.37182   0.12744   0.10035
H          H       0.36630   0.43943   0.20402   0.10239
H          H       0.56883   0.93808   0.08660   0.10289
H          H       0.08001   0.64522   0.15153   0.09938
H          H       0.57587   0.63554   0.36320   0.10367
H          H       0.35207   0.93656   0.39035   0.10093
H          H       0.04265   0.41205   0.45646   0.10063
H          H       0.41105   0.35320   0.51476   0.10447
H          H       0.62479   0.04915   0.40981   0.10099
H          H       0.93585   0.57779   0.33495   0.10334
H          H       0.57845   0.68466   0.36290   0.11482
H          H       0.30164   0.88975   0.40013   0.11396
H          H       0.08786   0.40715   0.46604   0.11916
H          H       0.40698   0.30356   0.49963   0.11889
H          H       0.67691   0.09683   0.38158   0.11724
H          H       0.88986   0.58039   0.32480   0.12026
H          H       0.49369   0.64962   0.24351   0.10999
H          H       0.36011   0.85941   0.13733   0.10690
H          H       0.16147   0.50987   0.10243   0.10245
H          H       0.50919   0.36518   0.06615   0.10844
H          H       0.65568   0.16141   0.13607   0.10075
H          H       0.84817   0.49286   0.22250   0.10674
H          H       0.49232   0.60252   0.23150   0.09929
H          H       0.41018   0.90593   0.12493   0.10069
H          H       0.11663   0.51466   0.08913   0.10450
H          H       0.51325   0.41467   0.08012   0.09828
H          H       0.60511   0.11469   0.15408   0.10234
H          H       0.89429   0.49117   0.22005   0.10362
H          H       0.71275   0.55375   0.30622   0.05992
H          H       0.45549   0.17450   0.15222   0.06721
H          H       0.83416   0.27846   0.31849   0.06182
H          H       0.28538   0.44861   0.20849   0.06459
H          H       0.55472   0.84149   0.28370   0.06470
H          H       0.15980   0.72032   0.25514   0.05813
H          H       0.50506   0.69393   0.20518   0.06493
H          H       0.31017   0.81279   0.29898   0.06198
H          H       0.18070   0.49777   0.31931   0.06206
H          H       0.49962   0.31740   0.28460   0.06477
H          H       0.68533   0.18910   0.25495   0.05855
H          H       0.81717   0.50405   0.18194   0.06344
H          H       0.76474   0.57338   0.31628   0.10213
H          H       0.42912   0.20244   0.18665   0.10651
H          H       0.80191   0.22580   0.31938   0.10351
H          H       0.23236   0.42672   0.21962   0.10384
H          H       0.57621   0.80989   0.28662   0.10553
H          H       0.19331   0.77452   0.23141   0.10191
H          H       0.81234   0.56988   0.28926   0.11281
H          H       0.43184   0.25117   0.21156   0.11610
H          H       0.75272   0.18190   0.29744   0.11814
H          H       0.18419   0.42912   0.24866   0.11378
H          H       0.57219   0.75972   0.28188   0.11476
H          H       0.24284   0.81947   0.24503   0.11240
H          H       0.76325   0.48196   0.19697   0.10432
H          H       0.51911   0.28390   0.30365   0.10398
H          H       0.71936   0.24304   0.23244   0.10286
H          H       0.23226   0.51739   0.33832   0.10195
H          H       0.48070   0.72249   0.23147   0.10833
H          H       0.27852   0.76028   0.30014   0.10461
H          H       0.71495   0.48462   0.23279   0.11497
H          H       0.51485   0.23385   0.29375   0.11498
H          H       0.76893   0.28718   0.25061   0.11498
H          H       0.27977   0.51419   0.31742   0.11275
H          H       0.48390   0.77195   0.24541   0.11602
H          H       0.22941   0.71562   0.28242   0.11899
H          H       0.48503   0.55583   0.80627   0.10097
H          H       0.44514   0.92688   0.74628   0.09981
H          H       0.07483   0.51102   0.79509   0.10299
H          H       0.51615   0.43871   0.77721   0.09826
H          H       0.55837   0.07155   0.80300   0.10274
H          H       0.93084   0.48730   0.75459   0.09956
H          H       0.58372   0.60106   0.76972   0.10595
H          H       0.40373   0.98101   0.72734   0.10909
H          H       0.02337   0.41858   0.75625   0.10488
H          H       0.41842   0.39549   0.80728   0.10901
H          H       0.60121   0.01860   0.80039   0.10715
H          H       0.98169   0.57932   0.80407   0.10824
H          H       0.60792   0.57142   0.77011   0.10687
H          H       0.43105   0.03285   0.74465   0.10609
H          H       0.97023   0.39589   0.74764   0.10361
H          H       0.39510   0.42589   0.80385   0.10669
H          H       0.57254   0.96523   0.79271   0.10393
H          H       0.03386   0.60137   0.81749   0.10804
H          H       0.55429   0.47429   0.79064   0.09760
H          H       0.52266   0.07388   0.79681   0.09861
H          H       0.92849   0.44978   0.74087   0.10197
H          H       0.45295   0.52579   0.74068   0.10270
H          H       0.47879   0.92271   0.77051   0.10287
H          H       0.07742   0.54911   0.79955   0.09931
H          H       0.57822   0.46960   0.98511   0.09972
H          H       0.52455   0.11149   0.79984   0.10480
H          H       0.88252   0.40365   0.88836   0.10425
H          H       0.41130   0.52293   0.81959   0.10513
H          H       0.47085   0.87743   0.99510   0.10508
H          H       0.10414   0.57669   0.91919   0.10195
H          H       0.62402   0.46531   0.98737   0.11935
H          H       0.52531   0.15914   0.81118   0.11695
H          H       0.83169   0.35724   0.89966   0.11645
H          H       0.36415   0.52484   0.82870   0.11970
H          H       0.46512   0.82702   0.98435   0.11933
H          H       0.15712   0.62407   0.88573   0.11506
H          H       0.69707   0.56613   0.58637   0.10249
H          H       0.43135   0.11579   0.78627   0.10991
H          H       0.88869   0.32550   0.63807   0.10510
H          H       0.32045   0.43697   0.73034   0.10789
H          H       0.56804   0.88628   0.56299   0.10655
H          H       0.13660   0.68955   0.64349   0.10248
H          H       0.65151   0.56998   0.57600   0.10426
H          H       0.43000   0.06834   0.77725   0.10267
H          H       0.93947   0.37200   0.62217   0.09969
H          H       0.36755   0.43570   0.71288   0.10219
H          H       0.57355   0.93671   0.56956   0.10210
H          H       0.08529   0.64309   0.66507   0.10262
H          H       0.58188   0.63633   0.81883   0.10348
H          H       0.35745   0.93334   0.87456   0.10546
H          H       0.04518   0.41015   0.96817   0.10138
H          H       0.41428   0.35028   0.02331   0.10610
H          H       0.62855   0.04832   0.91529   0.09986
H          H       0.94594   0.58289   0.79979   0.10412
H          H       0.58354   0.68469   0.82384   0.11833
H          H       0.30763   0.88655   0.87933   0.11854
H          H       0.09029   0.40526   0.98042   0.11836
H          H       0.40874   0.30014   0.00701   0.11925
H          H       0.68064   0.09633   0.88468   0.11527
H          H       0.89966   0.58581   0.80341   0.12011
H          H       0.49001   0.64220   0.79494   0.11103
H          H       0.36683   0.85615   0.62765   0.10457
H          H       0.16408   0.50784   0.61452   0.10169
H          H       0.50851   0.36061   0.54630   0.10628
H          H       0.65814   0.16006   0.64428   0.10123
H          H       0.85078   0.49358   0.75488   0.10873
H          H       0.48827   0.59458   0.78604   0.10368
H          H       0.41669   0.90323   0.61624   0.09853
H          H       0.11937   0.51253   0.59700   0.10507
H          H       0.51382   0.41059   0.55972   0.10150
H          H       0.60782   0.11307   0.66220   0.10391
H          H       0.89613   0.49035   0.75125   0.10310
H          H       0.71774   0.55622   0.80730   0.06076
H          H       0.45043   0.16602   0.67460   0.06913
H          H       0.83801   0.27894   0.81108   0.06086
H          H       0.28910   0.44792   0.70056   0.06211
H          H       0.55489   0.83660   0.80427   0.06500
H          H       0.16574   0.71641   0.76011   0.05579
H          H       0.51333   0.69507   0.65805   0.06911
H          H       0.31619   0.80905   0.79984   0.06205
H          H       0.18368   0.49621   0.82706   0.06145
H          H       0.50041   0.31324   0.76264   0.06400
H          H       0.68821   0.18831   0.75914   0.05636
H          H       0.82512   0.50991   0.67225   0.06317
H          H       0.77010   0.57672   0.81890   0.10259
H          H       0.42435   0.19442   0.71226   0.10798
H          H       0.80552   0.22613   0.81709   0.10286
H          H       0.23506   0.42500   0.72401   0.10361
H          H       0.57411   0.80322   0.82466   0.10452
H          H       0.19928   0.77040   0.73306   0.10240
H          H       0.81828   0.57435   0.79087   0.11367
H          H       0.42857   0.24431   0.72571   0.11710
H          H       0.75593   0.18169   0.80070   0.11715
H          H       0.18670   0.42735   0.75741   0.11431
H          H       0.57085   0.75386   0.80882   0.11568
H          H       0.24913   0.81554   0.74410   0.11663
H          H       0.77123   0.48704   0.69017   0.10442
H          H       0.51939   0.27963   0.78141   0.10645
H          H       0.72259   0.24275   0.73077   0.10382
H          H       0.23603   0.51645   0.83740   0.10273
H          H       0.48598   0.72268   0.69349   0.10704
H          H       0.28499   0.75647   0.79670   0.10346
H          H       0.72237   0.48860   0.72671   0.11491
H          H       0.51432   0.22899   0.77721   0.11462
H          H       0.77228   0.28727   0.74569   0.11565
H          H       0.28383   0.51347   0.81088   0.11396
H          H       0.48826   0.77114   0.71884   0.11632
H          H       0.23520   0.71139   0.78428   0.11721
C          C       0.47222   0.00457   0.26184  -0.00609
C          C       0.99731   0.47190   0.26455  -0.00799
C          C       0.52886   0.52926   0.27354  -0.00726
C          C       0.52344   0.99857   0.28182  -0.00754
C          C      -0.00037   0.52765   0.28423  -0.00588
C          C       0.47049   0.47528   0.28642  -0.00641
C          C       0.47288   0.50442   0.27613   0.04015
C          C       0.49568   0.97240   0.27324   0.04013
C          C       0.02644   0.52612   0.28605   0.03436
C          C       0.52679   0.50047   0.27811   0.04024
C          C       0.49981   0.03065   0.27153   0.03922
C          C       0.97049   0.47344   0.26366   0.03389
C          C       0.50237   0.53169   0.27659   0.04161
C          C       0.46966   0.97580   0.25910   0.03327
C          C       0.02534   0.49749   0.27465   0.03855
C          C       0.49683   0.47273   0.28508   0.04177
C          C       0.52625   0.02760   0.28145   0.03454
C          C       0.97163   0.50203   0.27504   0.04063
C          C       0.50476   0.55932   0.28727  -0.17610
C          C       0.44197   0.95142   0.24954  -0.16503
C          C       0.05061   0.49427   0.27448  -0.18059
C          C       0.49338   0.44406   0.28840  -0.17406
C          C       0.55396   0.05206   0.29043  -0.17493
C          C       0.94604   0.50478   0.27789  -0.18551
C          C       0.53313   0.58614   0.28473   0.06689
C          C       0.41548   0.95320   0.24879   0.07133
C          C       0.04929   0.46643   0.26790   0.06825
C          C       0.46443   0.41701   0.29815   0.07018
C          C       0.58019   0.05007   0.29418   0.07272
C          C       0.94693   0.53253   0.28159   0.06639
C          C       0.55960   0.58432   0.27223  -0.18347
C          C       0.41832   0.98143   0.24908  -0.17761
C          C       0.02202   0.44161   0.25841  -0.18797
C          C       0.43847   0.41915   0.30336  -0.18727
C          C       0.57714   0.02165   0.29699  -0.18061
C          C       0.97450   0.55761   0.28880  -0.18422
C          C       0.55794   0.55619   0.26964   0.08738
C          C       0.44620   0.00730   0.25542   0.08904
C          C       0.99589   0.44377   0.25517   0.08953
C          C       0.44110   0.44811   0.29465   0.08517
C          C       0.54924   0.99569   0.29188   0.09102
C          C       0.00080   0.55572   0.29196   0.08807
C          C       0.58427   0.55393   0.26792  -0.18738
C          C       0.44803   0.03535   0.26158  -0.18351
C          C       0.96796   0.41808   0.24825  -0.17686
C          C       0.41527   0.45072   0.29079  -0.18445
C          C       0.54690   0.96713   0.29261  -0.19122
C          C       0.02878   0.58168   0.29726  -0.17875
C          C       0.58199   0.52572   0.27424   0.07072
C          C       0.47488   0.06100   0.27042   0.06425
C          C       0.94156   0.41928   0.25051   0.07133
C          C       0.41812   0.47957   0.27156   0.06803
C          C       0.51966   0.94148   0.28782   0.07049
C          C       0.05532   0.58072   0.29478   0.07425
C          C       0.55308   0.49936   0.27949  -0.17342
C          C       0.50076   0.05812   0.27177  -0.17850
C          C       0.94394   0.44769   0.25376  -0.17368
C          C       0.44749   0.50623   0.26235  -0.17451
C          C       0.49420   0.94448   0.27916  -0.18609
C          C       0.05311   0.55224   0.29321  -0.17086
C          C       0.53418   0.61492   0.29476   0.06249
C          C       0.38533   0.92516   0.25604   0.06457
C          C       0.07620   0.46381   0.27460   0.06296
C          C       0.46243   0.38751   0.29769   0.05998
C          C       0.61033   0.07793   0.28761   0.06620
C          C       0.91948   0.53443   0.27612   0.06158
C          C       0.39092   0.48189   0.26665   0.06027
C          C       0.51719   0.91164   0.28991   0.06190
C          C       0.08561   0.60887   0.28620   0.06237
C          C       0.60850   0.52231   0.27889   0.06043
C          C       0.47634   0.09002   0.28048   0.05816
C          C       0.91120   0.39144   0.25862   0.06346
C          C       0.60022   0.49192   0.38887  -0.12618
C          C       0.50130   0.11423   0.31171  -0.12843
C          C       0.88017   0.38663   0.33597  -0.12221
C          C       0.38873   0.50670   0.29959  -0.12932
C          C       0.48661   0.88017   0.40100  -0.12734
C          C       0.10710   0.60512   0.34617  -0.12365
C          C       0.62487   0.48799   0.39065  -0.15563
C          C       0.50275   0.14163   0.31891  -0.14936
C          C       0.85140   0.36027   0.34597  -0.15168
C          C       0.36194   0.50752   0.30571  -0.14814
C          C       0.48415   0.85214   0.39945  -0.15452
C          C       0.13625   0.63194   0.33036  -0.14509
C          C       0.65900   0.51479   0.28532   0.20838
C          C       0.47932   0.14638   0.29376   0.19844
C          C       0.85213   0.33707   0.28227   0.20352
C          C       0.33587   0.48351   0.28018   0.19345
C          C       0.51243   0.85454   0.28818   0.20672
C          C       0.14509   0.66392   0.25716   0.20588
C          C       0.66750   0.54526   0.17425  -0.18459
C          C       0.45359   0.12182   0.26855  -0.16930
C          C       0.88304   0.34160   0.20544  -0.17353
C          C       0.33795   0.45863   0.24667  -0.16852
C          C       0.54305   0.88598   0.17541  -0.17753
C          C       0.12383   0.66797   0.19545  -0.18086
C          C       0.64262   0.54882   0.17075  -0.12018
C          C       0.45241   0.09464   0.26066  -0.12205
C          C       0.91178   0.36820   0.19427  -0.12429
C          C       0.36495   0.45820   0.23815  -0.12254
C          C       0.54527   0.91390   0.17765  -0.12643
C          C       0.09502   0.64111   0.20860  -0.11845
C          C       0.55838   0.63889   0.33100  -0.12987
C          C       0.35411   0.91998   0.33242  -0.12493
C          C       0.06872   0.43350   0.37859  -0.12790
C          C       0.43246   0.35582   0.41539  -0.12277
C          C       0.63158   0.07371   0.34755  -0.12581
C          C       0.91741   0.55956   0.30442  -0.12687
C          C       0.55983   0.66650   0.33282  -0.14249
C          C       0.32561   0.89354   0.34055  -0.14906
C          C       0.09378   0.43058   0.38496  -0.15394
C          C       0.43007   0.32806   0.40832  -0.15525
C          C       0.66077   0.10022   0.33273  -0.14681
C          C       0.89144   0.56111   0.30068  -0.15393
C          C       0.53690   0.67137   0.29972   0.19596
C          C       0.32679   0.87061   0.27536   0.20353
C          C       0.12760   0.45824   0.28979   0.20921
C          C       0.45794   0.33100   0.28601   0.20672
C          C       0.66978   0.13229   0.26112   0.20743
C          C       0.86587   0.53742   0.27064   0.19407
C          C       0.51198   0.64700   0.26934  -0.16711
C          C       0.35791   0.87556   0.19926  -0.17121
C          C       0.13533   0.48861   0.18391  -0.18383
C          C       0.48806   0.36262   0.16817  -0.17993
C          C       0.64875   0.13680   0.19968  -0.17383
C          C       0.86738   0.51184   0.24544  -0.17173
C          C       0.51094   0.61977   0.26519  -0.12018
C          C       0.38634   0.90214   0.19093  -0.12095
C          C       0.11007   0.49125   0.17672  -0.12271
C          C       0.49014   0.39031   0.17518  -0.12402
C          C       0.61990   0.11023   0.21159  -0.12417
C          C       0.89372   0.51078   0.24612  -0.12318
C          C       0.70958   0.53175   0.29116   0.06897
C          C       0.46914   0.18583   0.22973   0.06633
C          C       0.81741   0.28458   0.29735   0.06749
C          C       0.28652   0.46783   0.25229   0.06881
C          C       0.53216   0.82273   0.27851   0.06687
C          C       0.17877   0.71599   0.25149   0.05994
C          C       0.73678   0.52904   0.27703   0.05953
C          C       0.47159   0.21476   0.24205   0.05794
C          C       0.78859   0.25942   0.28477   0.06540
C          C       0.25923   0.47040   0.26645   0.06348
C          C       0.53010   0.79397   0.26714   0.05155
C          C       0.20830   0.74214   0.25478   0.06398
C          C       0.52311   0.70839   0.25347   0.06223
C          C       0.29281   0.81843   0.28353   0.07030
C          C       0.17792   0.47590   0.30435   0.06757
C          C       0.47745   0.29910   0.27420   0.06995
C          C       0.70376   0.18417   0.25568   0.06173
C          C       0.81794   0.52296   0.22823   0.07178
C          C       0.76454   0.55336   0.29045  -0.13055
C          C       0.44833   0.21995   0.21678  -0.12681
C          C       0.78399   0.22960   0.29716  -0.13293
C          C       0.23199   0.44630   0.24831  -0.12552
C          C       0.55533   0.79065   0.27447  -0.13001
C          C       0.21216   0.77158   0.24591  -0.13870
C          C       0.79111   0.55171   0.27465  -0.10032
C          C       0.44981   0.24706   0.22911  -0.11089
C          C       0.75682   0.20516   0.28555  -0.09982
C          C       0.20515   0.44744   0.26419  -0.09972
C          C       0.55324   0.76283   0.27216  -0.11020
C          C       0.23957   0.79665   0.25299  -0.10634
C          C       0.79087   0.52586   0.24093   0.06321
C          C       0.47549   0.27052   0.25938   0.04900
C          C       0.73315   0.20974   0.26205   0.06171
C          C       0.20505   0.47328   0.29555   0.05663
C          C       0.52609   0.73776   0.25872   0.05670
C          C       0.26394   0.79291   0.27248   0.06779
C          C       0.76325   0.50174   0.22525  -0.12640
C          C       0.49931   0.26586   0.27921  -0.12709
C          C       0.73763   0.23948   0.25097  -0.13534
C          C       0.23234   0.49748   0.31292  -0.12884
C          C       0.50127   0.74147   0.24687  -0.12716
C          C       0.26000   0.76345   0.28213  -0.13365
C          C       0.73638   0.50302   0.24491  -0.10470
C          C       0.49710   0.23810   0.27382  -0.11447
C          C       0.76500   0.26405   0.26050  -0.10747
C          C       0.25894   0.49601   0.30042  -0.10359
C          C       0.50297   0.76891   0.25348  -0.10903
C          C       0.23280   0.73853   0.27282  -0.10005
C          C       0.47579   0.00168   0.76271  -0.00716
C          C       0.00106   0.47119   0.76492  -0.00834
C          C       0.53099   0.52582   0.77500  -0.00852
C          C       0.52750   0.99677   0.78521  -0.00801
C          C       0.00399   0.52708   0.78738  -0.00705
C          C       0.47269   0.47168   0.78858  -0.00758
C          C       0.47500   0.50079   0.77839   0.04277
C          C       0.50008   0.97041   0.77592   0.03982
C          C       0.03032   0.52486   0.79067   0.03382
C          C       0.52909   0.49705   0.78004   0.04127
C          C       0.50268   0.02773   0.77743   0.03880
C          C       0.97470   0.47341   0.76092   0.03670
C          C       0.50438   0.52809   0.77891   0.04108
C          C       0.47387   0.97322   0.76026   0.03298
C          C       0.02899   0.49628   0.77744   0.03695
C          C       0.49922   0.46929   0.78536   0.04106
C          C       0.52953   0.02537   0.78734   0.03831
C          C       0.97627   0.50224   0.77213   0.03967
C          C       0.50642   0.55553   0.79058  -0.17195
C          C       0.44685   0.94870   0.74682  -0.17486
C          C       0.05392   0.49266   0.77954  -0.18352
C          C       0.49602   0.44086   0.78375  -0.18047
C          C       0.55704   0.05013   0.79644  -0.17292
C          C       0.95154   0.50608   0.76906  -0.17747
C          C       0.53463   0.58261   0.78749   0.06500
C          C       0.42060   0.95032   0.73959   0.07341
C          C       0.05223   0.46465   0.77449   0.07214
C          C       0.46687   0.41375   0.79501   0.07168
C          C       0.58358   0.04864   0.80015   0.07270
C          C       0.95249   0.53366   0.77922   0.06452
C          C       0.56128   0.58099   0.77369  -0.18677
C          C       0.42281   0.97831   0.73892  -0.17668
C          C       0.02490   0.44006   0.76423  -0.19362
C          C       0.44064   0.41570   0.80458  -0.18770
C          C       0.58124   0.02062   0.79991  -0.18181
C          C       0.97960   0.55770   0.79457  -0.18376
C          C       0.55991   0.55296   0.77079   0.08690
C          C       0.44988   0.00412   0.75078   0.09113
C          C       0.99927   0.44284   0.75707   0.08906
C          C       0.44322   0.44459   0.79687   0.08794
C          C       0.55380   0.99453   0.79226   0.08997
C          C       0.00553   0.55516   0.79823   0.08834
C          C       0.58642   0.55100   0.76870  -0.18540
C          C       0.45111   0.03193   0.75560  -0.18330
C          C       0.97142   0.41754   0.74782  -0.18173
C          C       0.41736   0.44722   0.79326  -0.18805
C          C       0.55239   0.96656   0.78730  -0.19536
C          C       0.03339   0.58042   0.80794  -0.17531
C          C       0.58435   0.52280   0.77719   0.06985
C          C       0.47682   0.05717   0.77347   0.06613
C          C       0.94549   0.41934   0.74675   0.07697
C          C       0.42033   0.47616   0.77295   0.06796
C          C       0.52520   0.94054   0.78403   0.07205
C          C       0.05949   0.57870   0.80628   0.06962
C          C       0.55538   0.49607   0.78446  -0.17757
C          C       0.50253   0.05449   0.78192  -0.17833
C          C       0.94815   0.44792   0.74965  -0.17204
C          C       0.44975   0.50271   0.76373  -0.17397
C          C       0.49922   0.94286   0.77996  -0.18113
C          C       0.05698   0.55034   0.80101  -0.17301
C          C       0.53532   0.61131   0.79752   0.05993
C          C       0.39116   0.92232   0.74205   0.05968
C          C       0.07889   0.46179   0.78356   0.06231
C          C       0.46446   0.38409   0.79232   0.06169
C          C       0.61351   0.07665   0.79474   0.06618
C          C       0.92546   0.53640   0.77400   0.06133
C          C       0.39347   0.47898   0.76634   0.06022
C          C       0.52268   0.91076   0.78324   0.05947
C          C       0.08997   0.60605   0.79970   0.06329
C          C       0.61144   0.52032   0.78231   0.06039
C          C       0.47751   0.08582   0.78348   0.05916
C          C       0.91525   0.39178   0.75230   0.05828
C          C       0.60427   0.49079   0.89641  -0.12492
C          C       0.50415   0.11218   0.79347  -0.12864
C          C       0.88429   0.38705   0.82943  -0.12174
C          C       0.39209   0.50446   0.79417  -0.12756
C          C       0.49208   0.87942   0.89877  -0.12326
C          C       0.11119   0.60139   0.85740  -0.13001
C          C       0.62971   0.48820   0.89921  -0.15424
C          C       0.50493   0.13930   0.79943  -0.14776
C          C       0.85551   0.36079   0.83888  -0.14886
C          C       0.36542   0.50559   0.80141  -0.14757
C          C       0.48876   0.85117   0.89440  -0.15717
C          C       0.14085   0.62773   0.83993  -0.15023
C          C       0.66361   0.51555   0.79096   0.20879
C          C       0.47937   0.14184   0.79149   0.20404
C          C       0.85618   0.33761   0.77475   0.20331
C          C       0.33882   0.48139   0.78005   0.19445
C          C       0.51635   0.85315   0.77738   0.20730
C          C       0.15020   0.65992   0.76824   0.20793
C          C       0.67097   0.54519   0.67650  -0.18638
C          C       0.45215   0.11525   0.78650  -0.17041
C          C       0.88706   0.34205   0.69810  -0.17578
C          C       0.34019   0.45597   0.75026  -0.16798
C          C       0.54706   0.88440   0.66099  -0.18302
C          C       0.12922   0.66480   0.70845  -0.16919
C          C       0.64534   0.54734   0.67146  -0.12233
C          C       0.45138   0.08810   0.78271  -0.11953
C          C       0.91579   0.36856   0.68762  -0.12421
C          C       0.36693   0.45509   0.74228  -0.12222
C          C       0.55000   0.91266   0.66428  -0.12739
C          C       0.10001   0.63847   0.72246  -0.12097
C          C       0.56198   0.63759   0.80808  -0.12645
C          C       0.35988   0.91701   0.81567  -0.12017
C          C       0.07127   0.43155   0.88985  -0.12758
C          C       0.43479   0.35255   0.91737  -0.12552
C          C       0.63504   0.07277   0.85356  -0.12687
C          C       0.92558   0.56334   0.78664  -0.12846
C          C       0.56318   0.66500   0.81113  -0.14861
C          C       0.33175   0.89060   0.82143  -0.14934
C          C       0.09629   0.42865   0.89774  -0.15243
C          C       0.43159   0.32449   0.90956  -0.15380
C          C       0.66422   0.09948   0.83765  -0.14808
C          C       0.89954   0.56524   0.78917  -0.14952
C          C       0.53789   0.66789   0.80072   0.20116
C          C       0.33339   0.86768   0.75857   0.20278
C          C       0.13012   0.45625   0.80228   0.20835
C          C       0.45841   0.32693   0.77944   0.20363
C          C       0.67287   0.13143   0.76710   0.20509
C          C       0.87206   0.54056   0.77568   0.19486
C          C       0.51059   0.64137   0.79630  -0.16906
C          C       0.36456   0.87264   0.68572  -0.17699
C          C       0.13793   0.48659   0.69512  -0.18343
C          C       0.48823   0.35838   0.65396  -0.17815
C          C       0.65152   0.13557   0.70713  -0.16520
C          C       0.87162   0.51347   0.76352  -0.16878
C          C       0.50953   0.61397   0.79425  -0.12326
C          C       0.39274   0.89943   0.67811  -0.12456
C          C       0.11277   0.48919   0.68588  -0.12274
C          C       0.49105   0.38641   0.66124  -0.12869
C          C       0.62277   0.10882   0.71931  -0.12431
C          C       0.89765   0.51165   0.76239  -0.12054
C          C       0.71502   0.53432   0.79320   0.06887
C          C       0.46628   0.17918   0.73774   0.06265
C          C       0.82111   0.28500   0.79191   0.06639
C          C       0.28988   0.46657   0.74917   0.07081
C          C       0.53364   0.81926   0.78376   0.06735
C          C       0.18452   0.71190   0.75783   0.06793
C          C       0.74285   0.53246   0.77727   0.05769
C          C       0.46901   0.20840   0.74597   0.05792
C          C       0.79203   0.25961   0.78222   0.06287
C          C       0.26259   0.46917   0.76518   0.06269
C          C       0.53135   0.79035   0.77199   0.05198
C          C       0.21425   0.73807   0.75795   0.06519
C          C       0.52657   0.70651   0.73641   0.06744
C          C       0.29907   0.81465   0.77919   0.06180
C          C       0.18078   0.47425   0.81293   0.07025
C          C       0.47724   0.29447   0.76243   0.06939
C          C       0.70675   0.18356   0.75967   0.06588
C          C       0.82501   0.52771   0.72744   0.07223
C          C       0.77035   0.55697   0.79198  -0.13017
C          C       0.44484   0.21290   0.73051  -0.12780
C          C       0.78740   0.22972   0.79626  -0.13370
C          C       0.23496   0.44480   0.75098  -0.12646
C          C       0.55486   0.78548   0.79578  -0.12703
C          C       0.21814   0.76750   0.74772  -0.13332
C          C       0.79730   0.55589   0.77585  -0.10694
C          C       0.44712   0.24064   0.73690  -0.10756
C          C       0.76004   0.20500   0.78737  -0.10383
C          C       0.20802   0.44589   0.76954  -0.10126
C          C       0.55315   0.75806   0.78738  -0.11717
C          C       0.24564   0.79260   0.75342  -0.10407
C          C       0.79776   0.53043   0.74059   0.06330
C          C       0.47423   0.26518   0.75329   0.05038
C          C       0.73625   0.20938   0.76413   0.06519
C          C       0.20819   0.47189   0.80015   0.05931
C          C       0.52825   0.73502   0.75116   0.05759
C          C       0.27006   0.78884   0.77142   0.06338
C          C       0.77058   0.50633   0.72176  -0.12240
C          C       0.49864   0.26090   0.76592  -0.12635
C          C       0.74081   0.23923   0.75058  -0.13627
C          C       0.23592   0.49641   0.81286  -0.12938
C          C       0.50493   0.74006   0.72537  -0.12521
C          C       0.26617   0.75939   0.78155  -0.13446
C          C       0.74338   0.50705   0.74161  -0.09993
C          C       0.49594   0.23279   0.76421  -0.11390
C          C       0.76830   0.26404   0.75826  -0.10360
C          C       0.26266   0.49503   0.79733  -0.10344
C          C       0.50613   0.76704   0.73850  -0.11076
C          C       0.23876   0.73436   0.77471  -0.10732
N          N       0.68288   0.50945   0.28786  -0.27951
N          N       0.48277   0.17471   0.30322  -0.29080
N          N       0.82277   0.31233   0.28645  -0.28748
N          N       0.31009   0.48670   0.29070  -0.30150
N          N       0.50834   0.82564   0.28809  -0.28132
N          N       0.17445   0.68901   0.25222  -0.28289
N          N       0.54057   0.70007   0.30310  -0.29493
N          N       0.29754   0.84574   0.27842  -0.28871
N          N       0.15178   0.45361   0.29645  -0.28090
N          N       0.45399   0.30235   0.28117  -0.27691
N          N       0.69907   0.15699   0.25824  -0.28743
N          N       0.84075   0.54124   0.27335  -0.29987
N          N       0.68831   0.51140   0.79255  -0.27942
N          N       0.48248   0.17013   0.79773  -0.29425
N          N       0.82664   0.31284   0.78034  -0.28398
N          N       0.31316   0.48477   0.79157  -0.30322
N          N       0.51164   0.82403   0.77574  -0.27487
N          N       0.17988   0.68468   0.76178  -0.28989
N          N       0.54071   0.69598   0.80860  -0.28842
N          N       0.30420   0.84243   0.76412  -0.27997
N          N       0.15438   0.45171   0.80839  -0.28059
N          N       0.45360   0.29781   0.77702  -0.27841
N          N       0.70216   0.15636   0.76319  -0.28757
N          N       0.84719   0.54489   0.77964  -0.29975

