data_crystal

_audit_creation_method 'AiiDA-DDEC plugin'

_cell_length_a        36.51415
_cell_length_b        32.58730
_cell_length_c         7.99299

_cell_angle_alpha     108.79727
_cell_angle_beta     90.23306
_cell_angle_gamma     89.96111

_symmetry_space_group_name_Hall 'P 1'
_symmetry_space_group_name_H-M  'P 1'

loop_
_symmetry_equiv_pos_as_xyz
 'x,y,z'

loop_
_atom_site_label
_atom_site_type_symbol
_atom_site_fract_x
_atom_site_fract_y
_atom_site_fract_z
_atom_site_charge
H          H       0.10434   0.16167   0.09521   0.10017
H          H       0.89271   0.81589   0.03478   0.10233
H          H       0.11176   0.81841   0.04491   0.10131
H          H       0.89343   0.15992   0.10252   0.10221
H          H       0.60383   0.65987   0.08036   0.10120
H          H       0.39253   0.31755   0.04065   0.10152
H          H       0.61071   0.31809   0.04331   0.09997
H          H       0.39708   0.65923   0.07870   0.10166
H          H       0.06335   0.10356   0.11531   0.10076
H          H       0.93424   0.87789   0.06532   0.10660
H          H       0.07076   0.88078   0.06925   0.10577
H          H       0.93665   0.10350   0.12108   0.10100
H          H       0.56271   0.60222   0.10399   0.10051
H          H       0.43421   0.37941   0.07113   0.10775
H          H       0.57021   0.38051   0.06361   0.10598
H          H       0.43851   0.60141   0.10147   0.10025
H          H       0.14980   0.05256   0.35709   0.10487
H          H       0.86005   0.96240   0.43367   0.10559
H          H       0.14229   0.96451   0.45772   0.10828
H          H       0.85296   0.04692   0.35344   0.10384
H          H       0.64874   0.55229   0.35163   0.10534
H          H       0.36023   0.46381   0.44168   0.10507
H          H       0.64095   0.46393   0.45735   0.10740
H          H       0.35289   0.55047   0.34499   0.10488
H          H       0.19173   0.11091   0.33143   0.11863
H          H       0.81759   0.89989   0.40034   0.11847
H          H       0.18494   0.90194   0.42723   0.11792
H          H       0.80879   0.10443   0.33528   0.11896
H          H       0.69089   0.60975   0.32196   0.11780
H          H       0.31773   0.40169   0.40831   0.11792
H          H       0.68265   0.40087   0.43379   0.11761
H          H       0.31062   0.60897   0.31956   0.11808
H          H       0.18438   0.25533   0.18173   0.10839
H          H       0.81456   0.75271   0.35280   0.10126
H          H       0.18866   0.75423   0.35689   0.10078
H          H       0.81544   0.25322   0.20822   0.11081
H          H       0.68477   0.75345   0.16760   0.11074
H          H       0.31493   0.25397   0.35413   0.10097
H          H       0.68368   0.24927   0.35509   0.10122
H          H       0.31868   0.75402   0.17561   0.10979
H          H       0.27334   0.19424   0.36422   0.11772
H          H       0.72581   0.81370   0.16835   0.12175
H          H       0.27775   0.81493   0.17674   0.12297
H          H       0.72532   0.18957   0.37018   0.11781
H          H       0.77278   0.69333   0.36257   0.11756
H          H       0.22488   0.31616   0.18408   0.12237
H          H       0.77473   0.31422   0.21085   0.12278
H          H       0.23031   0.69377   0.36344   0.11808
H          H       0.46815   0.40436   0.34333   0.10919
H          H       0.53419   0.61032   0.33462   0.11103
H          H       0.46771   0.61015   0.32920   0.11280
H          H       0.53567   0.40383   0.33575   0.10806
H          H       0.96825   0.90257   0.33728   0.10876
H          H       0.03379   0.11014   0.34499   0.11154
H          H       0.96727   0.10909   0.33698   0.11117
H          H       0.03600   0.90261   0.33529   0.10767
H          H       0.33805   0.28629   0.13149   0.06030
H          H       0.66292   0.69222   0.10343   0.06446
H          H       0.33738   0.68980   0.09395   0.06517
H          H       0.66112   0.28550   0.14927   0.05725
H          H       0.83986   0.78401   0.14357   0.06115
H          H       0.16279   0.19392   0.11677   0.06345
H          H       0.83415   0.18896   0.12083   0.06348
H          H       0.16469   0.78719   0.14302   0.06018
H          H       0.10194   0.16289   0.60666   0.10238
H          H       0.88926   0.81654   0.54418   0.10110
H          H       0.10710   0.81483   0.54854   0.10072
H          H       0.89429   0.16211   0.60352   0.10355
H          H       0.60356   0.66044   0.59419   0.10332
H          H       0.38899   0.31653   0.53626   0.10131
H          H       0.60854   0.31530   0.54126   0.10056
H          H       0.39637   0.66278   0.59391   0.10285
H          H       0.05986   0.10573   0.62621   0.10106
H          H       0.93018   0.87865   0.56771   0.10583
H          H       0.06571   0.87604   0.56193   0.10848
H          H       0.93577   0.10377   0.61927   0.10247
H          H       0.56121   0.60346   0.61445   0.10142
H          H       0.42972   0.37877   0.55561   0.10532
H          H       0.56668   0.37658   0.55919   0.10663
H          H       0.43715   0.60328   0.60443   0.10190
H          H       0.14678   0.04904   0.84349   0.10535
H          H       0.85770   0.96265   0.94958   0.10925
H          H       0.13915   0.96330   0.93050   0.10854
H          H       0.84986   0.04935   0.84678   0.10749
H          H       0.64755   0.54698   0.83572   0.10563
H          H       0.35900   0.46278   0.94581   0.10906
H          H       0.63830   0.46294   0.94035   0.10754
H          H       0.35083   0.54965   0.83238   0.10608
H          H       0.18953   0.10681   0.82102   0.11936
H          H       0.81623   0.90000   0.92362   0.11723
H          H       0.18133   0.90164   0.91213   0.11942
H          H       0.80720   0.10808   0.82654   0.11885
H          H       0.69059   0.60433   0.81191   0.11944
H          H       0.31718   0.40004   0.92121   0.11680
H          H       0.68102   0.40089   0.91834   0.11815
H          H       0.30893   0.60936   0.81589   0.11769
H          H       0.18286   0.25388   0.68122   0.10999
H          H       0.81356   0.75136   0.85214   0.10147
H          H       0.18547   0.75265   0.85267   0.10096
H          H       0.81558   0.25566   0.70067   0.11108
H          H       0.68329   0.75098   0.67154   0.11133
H          H       0.31353   0.25175   0.85364   0.10139
H          H       0.68443   0.25281   0.86049   0.10054
H          H       0.31574   0.75627   0.67959   0.11227
H          H       0.27155   0.19193   0.86399   0.11889
H          H       0.72343   0.81280   0.68127   0.12213
H          H       0.27388   0.81626   0.68139   0.12214
H          H       0.72692   0.19347   0.87652   0.11796
H          H       0.77255   0.69074   0.85883   0.11853
H          H       0.22367   0.31438   0.68508   0.12193
H          H       0.77436   0.31576   0.69614   0.12137
H          H       0.22838   0.69375   0.86407   0.11742
H          H       0.46383   0.40265   0.82390   0.10984
H          H       0.53222   0.60963   0.83831   0.11270
H          H       0.46555   0.60959   0.83033   0.11122
H          H       0.53130   0.40114   0.81927   0.11039
H          H       0.96524   0.90250   0.83201   0.10923
H          H       0.03137   0.11037   0.85201   0.11251
H          H       0.96477   0.11023   0.84879   0.11199
H          H       0.03225   0.90190   0.82165   0.10999
H          H       0.33723   0.28529   0.63920   0.06143
H          H       0.66398   0.68765   0.59666   0.06373
H          H       0.33740   0.69371   0.60966   0.06404
H          H       0.66093   0.28515   0.64504   0.05917
H          H       0.83744   0.78496   0.64740   0.05924
H          H       0.16047   0.19327   0.62133   0.06396
H          H       0.83459   0.19220   0.61739   0.06486
H          H       0.16031   0.78536   0.65108   0.05975
C          C       0.22641   0.21951   0.26779   0.19438
C          C       0.77324   0.78694   0.25666   0.20627
C          C       0.23034   0.78829   0.26388   0.20498
C          C       0.77284   0.21601   0.28352   0.19414
C          C       0.72603   0.71820   0.26185   0.19321
C          C       0.27309   0.28860   0.26274   0.20969
C          C       0.72640   0.28555   0.27990   0.20373
C          C       0.27673   0.71872   0.26396   0.19278
C          C       0.15053   0.14122   0.21775   0.05242
C          C       0.85259   0.85345   0.21971   0.05072
C          C       0.15122   0.85614   0.23498   0.05211
C          C       0.84859   0.13710   0.22399   0.05034
C          C       0.65000   0.63977   0.20512   0.05085
C          C       0.35208   0.35534   0.22274   0.05039
C          C       0.64927   0.35512   0.23879   0.05088
C          C       0.35151   0.63892   0.20397   0.04951
C          C       0.11406   0.13848   0.15746  -0.12562
C          C       0.88582   0.84766   0.12641  -0.13021
C          C       0.11850   0.85023   0.13694  -0.12918
C          C       0.88479   0.13595   0.16297  -0.12692
C          C       0.61360   0.63693   0.14370  -0.12548
C          C       0.38544   0.34943   0.13063  -0.13008
C          C       0.61713   0.34982   0.13706  -0.13083
C          C       0.38774   0.63618   0.14235  -0.12561
C          C       0.09077   0.10587   0.17033  -0.14494
C          C       0.90936   0.88246   0.14341  -0.13878
C          C       0.09511   0.88500   0.15191  -0.13775
C          C       0.90927   0.10435   0.17460  -0.14387
C          C       0.59019   0.60466   0.15852  -0.14420
C          C       0.40923   0.38410   0.14857  -0.14036
C          C       0.59423   0.38480   0.14852  -0.13696
C          C       0.41118   0.60388   0.15679  -0.14333
C          C       0.10301   0.07464   0.24486   0.07787
C          C       0.90054   0.92413   0.25659   0.08702
C          C       0.10342   0.92649   0.26812   0.08527
C          C       0.89827   0.07215   0.24579   0.07820
C          C       0.60246   0.57385   0.23513   0.08077
C          C       0.40033   0.42580   0.26144   0.08586
C          C       0.60256   0.42627   0.26485   0.08428
C          C       0.39916   0.57299   0.23309   0.07864
C          C       0.14020   0.07660   0.29882  -0.11783
C          C       0.86678   0.93011   0.34621  -0.12525
C          C       0.13623   0.93237   0.36656  -0.12764
C          C       0.86129   0.07214   0.29901  -0.11855
C          C       0.63949   0.57577   0.28979  -0.12021
C          C       0.36688   0.43163   0.35317  -0.12409
C          C       0.63494   0.43179   0.36618  -0.12609
C          C       0.36213   0.57464   0.28691  -0.11759
C          C       0.16342   0.10910   0.28630  -0.11174
C          C       0.84335   0.89550   0.32890  -0.09182
C          C       0.15977   0.89782   0.35035  -0.09228
C          C       0.83692   0.10398   0.28988  -0.10985
C          C       0.66277   0.60785   0.27506  -0.11035
C          C       0.34328   0.39718   0.33518  -0.09265
C          C       0.65789   0.39689   0.35415  -0.09273
C          C       0.33883   0.60707   0.27416  -0.11012
C          C       0.21300   0.25467   0.21864  -0.15778
C          C       0.78627   0.75226   0.30917  -0.18479
C          C       0.21689   0.75337   0.31307  -0.18159
C          C       0.78658   0.25184   0.23984  -0.16018
C          C       0.71314   0.75298   0.20865  -0.15857
C          C       0.28656   0.25358   0.31189  -0.18601
C          C       0.71249   0.24957   0.32083  -0.18356
C          C       0.29011   0.75359   0.21323  -0.15898
C          C       0.26346   0.22026   0.31829  -0.13863
C          C       0.73596   0.78696   0.20894  -0.14738
C          C       0.26752   0.78805   0.21590  -0.14924
C          C       0.73552   0.21618   0.32841  -0.13867
C          C       0.76294   0.71913   0.31526  -0.13618
C          C       0.23556   0.28895   0.21985  -0.15102
C          C       0.76405   0.28623   0.24137  -0.14875
C          C       0.23992   0.71971   0.31670  -0.13936
C          C       0.42333   0.46406   0.27588  -0.00730
C          C       0.57948   0.53962   0.26168  -0.00559
C          C       0.42255   0.53872   0.25764  -0.00599
C          C       0.57965   0.46424   0.27245  -0.00769
C          C       0.92367   0.96236   0.27344  -0.00722
C          C       0.07977   0.03998   0.26843  -0.00489
C          C       0.92240   0.03769   0.26309  -0.00863
C          C       0.08006   0.96420   0.27689  -0.00961
C          C       0.46252   0.46514   0.29005   0.04562
C          C       0.54031   0.54127   0.28210   0.04447
C          C       0.46183   0.54077   0.27796   0.04855
C          C       0.54039   0.46495   0.28515   0.04559
C          C       0.96285   0.96368   0.28760   0.04561
C          C       0.04043   0.04095   0.28637   0.04689
C          C       0.96178   0.03957   0.27832   0.05040
C          C       0.04070   0.96412   0.28583   0.04646
C          C       0.48290   0.43057   0.31739  -0.13392
C          C       0.51972   0.57981   0.30741  -0.13093
C          C       0.48214   0.57967   0.30509  -0.13577
C          C       0.52047   0.43038   0.31420  -0.13196
C          C       0.98323   0.92892   0.31338  -0.13340
C          C       0.01953   0.07941   0.31485  -0.13492
C          C       0.98195   0.07875   0.31021  -0.13584
C          C       0.02083   0.92907   0.31218  -0.13279
C          C       0.32744   0.31882   0.20381   0.06671
C          C       0.67344   0.67458   0.19041   0.06272
C          C       0.32804   0.67361   0.18773   0.06253
C          C       0.67277   0.31771   0.22343   0.06896
C          C       0.82829   0.81677   0.20458   0.06476
C          C       0.17378   0.17603   0.20163   0.06169
C          C       0.82457   0.17166   0.21056   0.06421
C          C       0.17575   0.81953   0.21414   0.06511
C          C       0.02112   0.00226   0.28401  -0.00155
C          C       0.98174   0.00180   0.28225  -0.00281
C          C       0.52093   0.50313   0.28404   0.00042
C          C       0.48158   0.50308   0.28426  -0.00369
C          C       0.09561   0.00234   0.27578  -0.08296
C          C       0.90718  -0.00017   0.27153  -0.08999
C          C       0.59537   0.50186   0.26756  -0.08692
C          C       0.40702   0.50118   0.26810  -0.09219
C          C       0.22481   0.21743   0.76672   0.19421
C          C       0.77140   0.78573   0.76276   0.20453
C          C       0.22685   0.78831   0.76431   0.20356
C          C       0.77332   0.21922   0.78072   0.19434
C          C       0.72549   0.71552   0.76018   0.19456
C          C       0.27165   0.28664   0.76502   0.20770
C          C       0.72643   0.28776   0.77276   0.20355
C          C       0.27446   0.71982   0.76657   0.19519
C          C       0.14839   0.13976   0.71772   0.05452
C          C       0.84983   0.85414   0.73240   0.05159
C          C       0.14739   0.85434   0.72660   0.05074
C          C       0.84825   0.13971   0.71880   0.05405
C          C       0.64970   0.63702   0.70627   0.05420
C          C       0.35029   0.35430   0.72759   0.05059
C          C       0.64745   0.35415   0.72949   0.04852
C          C       0.35019   0.64086   0.70914   0.05199
C          C       0.11153   0.13866   0.66377  -0.12857
C          C       0.88252   0.84838   0.63548  -0.13179
C          C       0.11417   0.84745   0.63236  -0.13043
C          C       0.88471   0.13802   0.66111  -0.12648
C          C       0.61296   0.63611   0.65136  -0.12657
C          C       0.38261   0.34846   0.62792  -0.13071
C          C       0.61479   0.34761   0.63085  -0.12957
C          C       0.38659   0.63854   0.65016  -0.12615
C          C       0.08766   0.10654   0.67630  -0.14182
C          C       0.90568   0.88324   0.64863  -0.13725
C          C       0.09056   0.88180   0.64181  -0.14156
C          C       0.90831   0.10557   0.67245  -0.14206
C          C       0.58891   0.60433   0.66537  -0.14411
C          C       0.40566   0.38341   0.63941  -0.13729
C          C       0.59108   0.38198   0.64202  -0.13996
C          C       0.40975   0.60546   0.65871  -0.14202
C          C       0.09988   0.07393   0.74319   0.07879
C          C       0.89704   0.92493   0.76168   0.08561
C          C       0.09940   0.92416   0.74911   0.08482
C          C       0.89622   0.07342   0.74176   0.07840
C          C       0.60083   0.57192   0.73424   0.07984
C          C       0.39731   0.42507   0.75378   0.08495
C          C       0.59932   0.42399   0.75469   0.08337
C          C       0.39732   0.57339   0.72763   0.08078
C          C       0.13735   0.07425   0.79128  -0.11667
C          C       0.86426   0.93066   0.85918  -0.12686
C          C       0.13255   0.93075   0.84516  -0.12665
C          C       0.85903   0.07432   0.79301  -0.11911
C          C       0.63825   0.57203   0.78224  -0.11835
C          C       0.36512   0.43071   0.85519  -0.12556
C          C       0.63223   0.43046   0.85247  -0.12601
C          C       0.36018   0.57471   0.77930  -0.11843
C          C       0.16104   0.10647   0.78013  -0.10965
C          C       0.84116   0.89590   0.84589  -0.09172
C          C       0.15614   0.89666   0.83497  -0.09104
C          C       0.83548   0.10673   0.78236  -0.11017
C          C       0.66215   0.60390   0.76995  -0.11068
C          C       0.34202   0.39595   0.84282  -0.09153
C          C       0.65588   0.39631   0.84091  -0.09067
C          C       0.33712   0.60772   0.77111  -0.10979
C          C       0.21146   0.25276   0.71816  -0.15873
C          C       0.78521   0.75050   0.80918  -0.18264
C          C       0.21387   0.75294   0.81216  -0.18323
C          C       0.78678   0.25455   0.73325  -0.16032
C          C       0.71181   0.75061   0.71108  -0.16032
C          C       0.28507   0.25138   0.81251  -0.18386
C          C       0.71296   0.25262   0.82125  -0.18202
C          C       0.28724   0.75512   0.71694  -0.15877
C          C       0.26184   0.21798   0.81766  -0.13745
C          C       0.73408   0.78541   0.71600  -0.14806
C          C       0.26409   0.78896   0.71880  -0.14537
C          C       0.73629   0.21962   0.82998  -0.13923
C          C       0.76244   0.71667   0.81274  -0.13939
C          C       0.23420   0.28705   0.72063  -0.14766
C          C       0.76396   0.28842   0.73176  -0.14638
C          C       0.23752   0.71995   0.81744  -0.13888
C          C       0.42007   0.46309   0.75965  -0.00659
C          C       0.57717   0.53787   0.75861  -0.00434
C          C       0.42034   0.53856   0.74973  -0.00433
C          C       0.57640   0.46205   0.76382  -0.00665
C          C       0.91991   0.96286   0.76836  -0.00638
C          C       0.07664   0.03905   0.76364  -0.00273
C          C       0.91956   0.03882   0.76417  -0.00293
C          C       0.07654   0.96228   0.75771  -0.00510
C          C       0.45932   0.46371   0.77366   0.04727
C          C       0.53789   0.54002   0.77884   0.04619
C          C       0.45952   0.54031   0.77392   0.04840
C          C       0.53717   0.46310   0.77537   0.04748
C          C       0.95927   0.96364   0.77963   0.04755
C          C       0.03737   0.04079   0.78579   0.04767
C          C       0.95888   0.04077   0.78580   0.04774
C          C       0.03728   0.96327   0.77241   0.04721
C          C       0.47916   0.42888   0.80104  -0.13276
C          C       0.51768   0.57900   0.80681  -0.13071
C          C       0.48006   0.57905   0.80374  -0.13256
C          C       0.51678   0.42836   0.80022  -0.13233
C          C       0.97969   0.92897   0.80587  -0.13316
C          C       0.01696   0.07969   0.81916  -0.13137
C          C       0.97928   0.07964   0.81819  -0.13107
C          C       0.01732   0.92873   0.80100  -0.13428
C          C       0.32612   0.31754   0.71046   0.06549
C          C       0.67373   0.67099   0.68820   0.06247
C          C       0.32696   0.67610   0.69632   0.06268
C          C       0.67193   0.31779   0.71508   0.06706
C          C       0.82575   0.81728   0.71464   0.06590
C          C       0.17183   0.17451   0.70226   0.05984
C          C       0.82495   0.17484   0.70632   0.06166
C          C       0.17182   0.81809   0.71289   0.06391
C          C       0.01786   0.00206   0.77915  -0.00160
C          C       0.97849   0.00214   0.78101  -0.00184
C          C       0.51814   0.50172   0.77645  -0.00180
C          C       0.47882   0.50192   0.77445  -0.00159
C          C       0.09244   0.00025   0.75705  -0.09834
C          C       0.90393   0.00033   0.76192  -0.09678
C          C       0.59265   0.49959   0.76126  -0.09310
C          C       0.40438   0.50040   0.75043  -0.09496
N          N       0.29461   0.32417   0.26669  -0.27141
N          N       0.70449   0.68366   0.27363  -0.29150
N          N       0.29802   0.68408   0.27683  -0.29023
N          N       0.70537   0.32206   0.28820  -0.26786
N          N       0.79486   0.82237   0.25925  -0.26864
N          N       0.20524   0.18487   0.28069  -0.29061
N          N       0.79416   0.18121   0.29599  -0.29107
N          N       0.20905   0.82443   0.27282  -0.26955
N          N       0.29297   0.32249   0.77106  -0.27006
N          N       0.70432   0.68087   0.77370  -0.28935
N          N       0.29606   0.68526   0.77828  -0.29177
N          N       0.70496   0.32344   0.77621  -0.26898
N          N       0.79242   0.82204   0.77085  -0.27081
N          N       0.20374   0.18251   0.77816  -0.29084
N          N       0.79449   0.18440   0.79198  -0.29085
N          N       0.20536   0.82392   0.76790  -0.26995

