data_crystal

_audit_creation_method 'AiiDA-DDEC plugin'

_cell_length_a        52.38474
_cell_length_b        52.24757
_cell_length_c         8.04393

_cell_angle_alpha     70.10190
_cell_angle_beta     111.41545
_cell_angle_gamma     121.14393

_symmetry_space_group_name_Hall 'P 1'
_symmetry_space_group_name_H-M  'P 1'

loop_
_symmetry_equiv_pos_as_xyz
 'x,y,z'

loop_
_atom_site_label
_atom_site_type_symbol
_atom_site_fract_x
_atom_site_fract_y
_atom_site_fract_z
_atom_site_charge
H          H       0.29626   0.11333   0.51595   0.10763
H          H       0.87975   0.18226   0.48777   0.10756
H          H       0.81158   0.68768   0.43595   0.11182
H          H       0.35091   0.13798   0.53705   0.10330
H          H       0.85599   0.21417   0.45463   0.10274
H          H       0.78144   0.63528   0.38802   0.10344
H          H       0.39496   0.25072   0.25590   0.27572
H          H       0.75737   0.13730   0.13365   0.27699
H          H       0.86157   0.62395   0.13085   0.27499
H          H       0.25443   0.17400   0.42830   0.11250
H          H       0.81631   0.08337   0.49100   0.10690
H          H       0.91173   0.72865   0.47344   0.11580
H          H       0.19818   0.14604   0.40717   0.09666
H          H       0.84221   0.05507   0.48867   0.09943
H          H       0.93719   0.78412   0.47235   0.09867
H          H       0.21928   0.08004   0.15539   0.11243
H          H       0.93472   0.13706   0.21456   0.11277
H          H       0.86438   0.79951   0.12773   0.11497
H          H       0.27584   0.10659   0.18605   0.09935
H          H       0.90588   0.16202   0.22487   0.09982
H          H       0.83414   0.74397   0.12578   0.10336
H          H       0.41324   0.16989   0.15404   0.10737
H          H       0.84222   0.23679   0.15287   0.10840
H          H       0.75599   0.60456   0.03117   0.11000
H          H       0.46426   0.19539   0.09075   0.09821
H          H       0.81706   0.26774   0.12610   0.10250
H          H       0.72878   0.55023   0.00600   0.10064
H          H       0.45689   0.26288   0.55384   0.09932
H          H       0.72651   0.19257   0.32766   0.10666
H          H       0.80282   0.53549   0.34631   0.10473
H          H       0.40358   0.24022   0.57959   0.09581
H          H       0.75497   0.16503   0.34484   0.09473
H          H       0.83437   0.59027   0.36742   0.09900
H          H       0.16916   0.12070   0.94226   0.05713
H          H       0.89549   0.06418   0.03049   0.06200
H          H       0.94547   0.84585   0.05636   0.05797
H          H       0.49434   0.21678   0.56403   0.05820
H          H       0.76405   0.26384   0.52205   0.06451
H          H       0.72247   0.48878   0.42804   0.05842
H          H       0.13826   0.10522   0.13328   0.10024
H          H       0.92103   0.03787   0.22163   0.10558
H          H       0.96884   0.87727   0.28298   0.10235
H          H       0.08419   0.08194   0.13981   0.10205
H          H       0.94495   0.00875   0.21217   0.10090
H          H       0.00265   0.93237   0.28430   0.10215
H          H       0.05278   0.98146   0.47232   0.10144
H          H       0.00141   0.06796   0.49488   0.10595
H          H       0.91536   0.92776   0.35557   0.10416
H          H       0.10794   0.00543   0.47974   0.11568
H          H       0.98093   0.09946   0.51818   0.11926
H          H       0.88547   0.87205   0.35747   0.11905
H          H       0.52421   0.23348   0.38990   0.10248
H          H       0.73813   0.28949   0.29504   0.10656
H          H       0.69803   0.45824   0.19267   0.10293
H          H       0.57666   0.25560   0.35690   0.10054
H          H       0.71496   0.32075   0.28416   0.10304
H          H       0.66282   0.40318   0.19822   0.10075
H          H       0.61446   0.35879   0.00944   0.10000
H          H       0.66042   0.26538   0.02399   0.10620
H          H       0.74913   0.40604   0.10943   0.10426
H          H       0.56060   0.33690   0.02465   0.11229
H          H       0.68007   0.23150   0.02424   0.11752
H          H       0.77992   0.46147   0.11400   0.11584
H          H       0.03942   0.06627   0.08293   0.10307
H          H       0.95248   0.98694   0.08332   0.10171
H          H       0.02960   0.97925   0.08057   0.10171
H          H       0.62212   0.26816   0.43598   0.10098
H          H       0.70988   0.34537   0.40750   0.10138
H          H       0.63542   0.35807   0.40449   0.10261
H          H       0.32996   0.26272   0.21193   0.26720
H          H       0.74728   0.05982   0.25685   0.27152
H          H       0.93911   0.68156   0.27139   0.27096
H          H       0.40695   0.29881   0.05082   0.03966
H          H       0.71421   0.11187   0.87250   0.04578
H          H       0.90554   0.60620   0.04127   0.04111
H          H       0.43985   0.35265   0.18855   0.11476
H          H       0.65581   0.09105   0.91042   0.11061
H          H       0.93902   0.60382   0.44231   0.10405
H          H       0.41879   0.35094   0.96014   0.10915
H          H       0.66315   0.07537   0.77915   0.11069
H          H       0.93737   0.58618   0.28426   0.10336
H          H       0.41818   0.39671   0.13714   0.10877
H          H       0.61071   0.02928   0.00876   0.10876
H          H       0.00334   0.62326   0.37131   0.11040
H          H       0.37394   0.39756   0.18122   0.10338
H          H       0.60766   0.98301   0.24728   0.10232
H          H       0.04225   0.67463   0.26091   0.10325
H          H       0.32539   0.35015   0.20373   0.11000
H          H       0.65476   0.97697   0.42284   0.11024
H          H       0.02713   0.71561   0.07719   0.10614
H          H       0.31972   0.30171   0.17324   0.10705
H          H       0.70524   0.01597   0.35575   0.10796
H          H       0.97240   0.70578   0.00178   0.12504
H          H       0.43640   0.30090   0.34185   0.35209
H          H       0.70491   0.13125   0.04643   0.35056
H          H       0.87083   0.57931   0.19346   0.35658
H          H       0.35865   0.29510   0.96542   0.06137
H          H       0.71472   0.06567   0.95840   0.06035
H          H       0.91299   0.65546   0.97914   0.07007
H          H       0.31296   0.12974   0.03327   0.11249
H          H       0.88307   0.18898   0.02462   0.10853
H          H       0.80701   0.70919   0.94806   0.10577
H          H       0.36762   0.15434   0.05782   0.10242
H          H       0.85924   0.22093   0.98886   0.10208
H          H       0.77605   0.65665   0.89973   0.10207
H          H       0.37898   0.23499   0.73671   0.28248
H          H       0.75634   0.13083   0.63180   0.28223
H          H       0.86781   0.60396   0.62225   0.28149
H          H       0.27179   0.19165   0.93184   0.10290
H          H       0.82109   0.09073  -0.00101   0.10665
H          H       0.90825   0.74513   0.00405   0.11291
H          H       0.21526   0.16492   0.89537   0.09622
H          H       0.84995   0.06640   0.98553   0.10367
H          H       0.93834   0.80038   0.00854   0.09925
H          H       0.20492   0.06236   0.66356   0.11229
H          H       0.92990   0.12586   0.68804   0.11602
H          H       0.86229   0.77373   0.63483   0.11156
H          H       0.26129   0.09021   0.68545   0.10090
H          H       0.90399   0.15444   0.68980   0.10584
H          H       0.83692   0.71799   0.64013   0.10043
H          H       0.39501   0.15069   0.65141   0.10630
H          H       0.83725   0.22951   0.63887   0.11160
H          H       0.76240   0.58753   0.52297   0.10967
H          H       0.44750   0.17390   0.61399   0.09893
H          H       0.80885   0.25688   0.62059   0.10542
H          H       0.73075   0.53352   0.49287   0.10030
H          H       0.46845   0.28272   0.01285   0.10380
H          H       0.73177   0.20421   0.84671   0.10743
H          H       0.80489   0.56042   0.85800   0.10501
H          H       0.41610   0.25736   0.06240   0.09580
H          H       0.75721   0.17361   0.86787   0.10140
H          H       0.83120   0.61563   0.86682   0.10274
H          H       0.15348   0.10147   0.47127   0.05702
H          H       0.88561   0.04986   0.52931   0.05741
H          H       0.93992   0.82776   0.52255   0.05839
H          H       0.50907   0.23849   0.03400   0.05575
H          H       0.77424   0.27750   0.02939   0.06079
H          H       0.72599   0.50670   0.94984   0.05945
H          H       0.12289   0.08063   0.67010   0.10519
H          H       0.90683   0.01877   0.71744   0.10547
H          H       0.95972   0.85760   0.76258   0.09950
H          H       0.06873   0.05643   0.67302   0.10457
H          H       0.92735   0.98722   0.69724   0.09458
H          H       0.98888   0.91299   0.76868   0.10542
H          H       0.06938   0.00000   0.02259   0.10890
H          H       0.01246   0.09064   0.96366   0.10147
H          H       0.93115   0.95290   0.89062   0.09625
H          H       0.12426   0.02274   0.03333   0.12076
H          H       0.98871   0.12005   0.97890   0.11216
H          H       0.89734   0.89766   0.88773   0.11746
H          H       0.54005   0.25606   0.87005   0.10664
H          H       0.75295   0.30821   0.79167   0.10729
H          H       0.70700   0.47818   0.70805   0.10087
H          H       0.59278   0.27784   0.84776   0.10270
H          H       0.73277   0.34212   0.78416   0.09506
H          H       0.67693   0.42309   0.69552   0.10562
H          H       0.59790   0.33837   0.49541   0.10517
H          H       0.64882   0.24300   0.56489   0.10460
H          H       0.73366   0.38120   0.59021   0.09658
H          H       0.54441   0.31660   0.51456   0.11654
H          H       0.67160   0.21135   0.56891   0.11067
H          H       0.76890   0.43637   0.58448   0.11546
H          H       0.02427   0.04277   0.59525   0.10225
H          H       0.93610   0.96433   0.56664   0.10168
H          H       0.01351   0.95741   0.55899   0.09827
H          H       0.63766   0.29111   0.90971   0.10325
H          H       0.72658   0.36794   0.90876   0.10046
H          H       0.65171   0.37978   0.90957   0.09691
H          H       0.31661   0.24191   0.77066   0.26588
H          H       0.75368   0.05753   0.84166   0.26679
H          H       0.94514   0.66160   0.78262   0.26619
H          H       0.38403   0.29273   0.49337   0.03515
H          H       0.70553   0.08831   0.38219   0.04073
H          H       0.91562   0.57888   0.64756   0.03839
H          H       0.41091   0.33899   0.70223   0.10553
H          H       0.65281   0.06714   0.50312   0.10571
H          H       0.94427   0.59130   0.03438   0.11253
H          H       0.39351   0.34290   0.46742   0.09969
H          H       0.65527   0.04836   0.36813   0.10012
H          H       0.94611   0.56604   0.94212   0.10925
H          H       0.37930   0.37496   0.65780   0.10999
H          H       0.61708   0.00460   0.66890   0.10830
H          H       0.01145   0.60457   0.02565   0.10966
H          H       0.33112   0.36440   0.71827   0.10521
H          H       0.62536   0.96426   0.92409   0.10198
H          H       0.05114   0.65285   0.89168   0.10365
H          H       0.28761   0.31252   0.72928   0.10488
H          H       0.67698   0.96621   0.05032   0.10399
H          H       0.03613   0.68978   0.64189   0.10717
H          H       0.29165   0.27033   0.68030   0.11403
H          H       0.72129   0.00890   0.92630   0.10880
H          H       0.98125   0.67887   0.52086   0.10984
H          H       0.41716   0.28966   0.74796   0.34492
H          H       0.70206   0.11722   0.50793   0.34640
H          H       0.88006   0.55726   0.80167   0.35738
H          H       0.33338   0.27353   0.46724   0.04441
H          H       0.72100   0.05174   0.53075   0.04929
H          H       0.92117   0.62812   0.51520   0.06251
C          C       0.31009   0.13572   0.55253  -0.15910
C          C       0.85745   0.17141   0.51909  -0.15040
C          C       0.82328   0.67374   0.47124  -0.15073
C          C       0.34155   0.14977   0.56726  -0.14514
C          C       0.84370   0.18965   0.49706  -0.14420
C          C       0.80607   0.64386   0.44289  -0.13686
C          C       0.36137   0.17931   0.60742  -0.03214
C          C       0.81386   0.17712   0.51970  -0.03110
C          C       0.81960   0.62481   0.47415  -0.03188
C          C       0.36264   0.20954   0.14980   0.10269
C          C       0.80121   0.15186   0.08097   0.09811
C          C       0.84581   0.65852   0.05532   0.10024
C          C       0.33027   0.19595   0.12713   0.11218
C          C       0.81466   0.13269   0.10637   0.11405
C          C       0.86424   0.68877   0.08816   0.11500
C          C       0.29509   0.15001   0.57268   0.01712
C          C       0.84315   0.13942   0.57085   0.01561
C          C       0.85543   0.68726   0.53652   0.01496
C          C       0.34821   0.24034   0.18441   0.45456
C          C       0.76943   0.10313   0.15804   0.45673
C          C       0.89471   0.66831   0.17278   0.45902
C          C       0.27791   0.15113   0.06254   0.09024
C          C       0.86139   0.12881   0.10559   0.08291
C          C       0.86881   0.74055   0.06131   0.08241
C          C       0.39414   0.19337   0.61178   0.09758
C          C       0.79803   0.19489   0.49748   0.09661
C          C       0.80098   0.59305   0.44959   0.09102
C          C       0.24359   0.14963   0.47974  -0.11254
C          C       0.84107   0.09261   0.53500  -0.11770
C          C       0.90115   0.73842   0.51118  -0.12059
C          C       0.21217   0.13390   0.46831  -0.13305
C          C       0.85569   0.07683   0.53383  -0.12877
C          C       0.91533   0.76949   0.51097  -0.12942
C          C       0.21360   0.12071   0.02496   0.05556
C          C       0.89435   0.10049   0.09560   0.05179
C          C       0.90321   0.80365   0.06683   0.05340
C          C       0.23107   0.10439   0.10529  -0.09930
C          C       0.90992   0.12749   0.16499  -0.11042
C          C       0.87350   0.78735   0.09875  -0.10189
C          C       0.26250   0.11934   0.12178  -0.13358
C          C       0.89368   0.14134   0.16930  -0.13385
C          C       0.85670   0.75640   0.09593  -0.13463
C          C       0.42473   0.19461   0.11999  -0.13805
C          C       0.81813   0.22977   0.08433  -0.14092
C          C       0.76661   0.59519   0.99029  -0.13866
C          C       0.45369   0.20898   0.08596  -0.12514
C          C       0.80397   0.24703   0.06984  -0.12687
C          C       0.75144   0.56457   0.97744  -0.12584
C          C       0.45549   0.22024   0.57385   0.04594
C          C       0.76558   0.22607   0.47636   0.04188
C          C       0.76487   0.53077   0.42004   0.04623
C          C       0.44271   0.23833   0.57193  -0.11558
C          C       0.75059   0.20003   0.39820  -0.11631
C          C       0.79444   0.54722   0.38593  -0.10123
C          C       0.41293   0.22525   0.59085  -0.14950
C          C       0.76654   0.18479   0.40893  -0.15151
C          C       0.81203   0.57770   0.40030  -0.15354
C          C       0.18076   0.10602   0.01259   0.06540
C          C       0.91032   0.08616   0.07583   0.07473
C          C       0.92169   0.83612   0.06706   0.06860
C          C       0.48575   0.23327   0.54160   0.06588
C          C       0.74943   0.24157   0.48024   0.07443
C          C       0.74604   0.49856   0.41365   0.07048
C          C       0.13507   0.06581   0.07917   0.20272
C          C       0.95242   0.08095   0.09355   0.20239
C          C       0.93114   0.88386   0.08006   0.20660
C          C       0.53073   0.27323   0.46105   0.20155
C          C       0.70731   0.24841   0.44004   0.20041
C          C       0.73554   0.45093   0.39357   0.20877
C          C       0.12296   0.08226   0.10651  -0.18739
C          C       0.94023   0.04925   0.15744  -0.17247
C          C       0.96102   0.89400   0.19202  -0.18151
C          C       0.09222   0.06893   0.10958  -0.12584
C          C       0.95393   0.03287   0.15268  -0.12414
C          C       0.97990   0.92495   0.19348  -0.12495
C          C       0.07178   0.03897   0.07937   0.05721
C          C       0.98030   0.04715   0.08414   0.05930
C          C       0.96961   0.94679   0.08406   0.06263
C          C       0.08420   0.02287   0.05108  -0.12731
C          C       0.99250   0.07891   0.02137  -0.13074
C          C       0.93947   0.93632   0.97595  -0.13092
C          C       0.09894   0.01641   0.52066  -0.16029
C          C       0.96955   0.07483   0.55922  -0.15755
C          C       0.90813   0.88126   0.44734  -0.15437
C          C       0.54046   0.25633   0.41597  -0.17927
C          C       0.71937   0.27960   0.36104  -0.17375
C          C       0.70547   0.44125   0.28381  -0.18061
C          C       0.57032   0.26892   0.39820  -0.12512
C          C       0.70610   0.29716   0.35461  -0.12622
C          C       0.68582   0.41032   0.28635  -0.12221
C          C       0.59220   0.29862   0.42869   0.05924
C          C       0.68047   0.28467   0.42731   0.05813
C          C       0.69542   0.38807   0.39752   0.05937
C          C       0.59828   0.33639   0.97623  -0.12848
C          C       0.68020   0.27501   0.96759  -0.11297
C          C       0.74006   0.42185   0.01836  -0.12526
C          C       0.56806   0.32423   0.98624  -0.15793
C          C       0.69124   0.25574   0.96966  -0.16201
C          C       0.75738   0.45284   0.02218  -0.16000
C          C       0.03896   0.02481   0.08094   0.07462
C          C       0.99439   0.02901   0.08244   0.08068
C          C       0.98919   0.97968   0.08387   0.07537
C          C       0.62446   0.31138   0.42009   0.07726
C          C       0.66736   0.30424   0.42105   0.08056
C          C       0.67473   0.35519   0.40419   0.07559
C          C       0.02548   0.04209   0.08142  -0.18716
C          C       0.97658   0.99769   0.08279  -0.17757
C          C       0.02026   0.99343   0.08293  -0.18302
C          C       0.63670   0.29252   0.42659  -0.18517
C          C       0.68603   0.33570   0.41063  -0.17982
C          C       0.64395   0.34283   0.40780  -0.18243
C          C       0.36808   0.29595   0.11153   0.05919
C          C       0.71358   0.07139   0.07509   0.05805
C          C       0.92396   0.64864   0.12029   0.03885
C          C       0.40308   0.30701   0.14385   0.17764
C          C       0.70321   0.09692   0.98490   0.17487
C          C       0.91141   0.61331   0.16924   0.17116
C          C       0.36613   0.32188   0.14130   0.01296
C          C       0.68638   0.04486   0.14580   0.01158
C          C       0.95762   0.65900   0.14487  -0.00328
C          C       0.39372   0.34855   0.13064   0.07688
C          C       0.65985   0.04867   0.04920   0.07951
C          C       0.96607   0.63567   0.24769   0.08212
C          C       0.41673   0.34221   0.10243  -0.28287
C          C       0.66807   0.07875   0.91739  -0.28459
C          C       0.93860   0.60695   0.29940  -0.28828
C          C       0.39672   0.37599   0.14387  -0.15206
C          C       0.63133   0.02636   0.08320  -0.15403
C          C       0.99656   0.64112   0.28984  -0.14324
C          C       0.37180   0.37640   0.16874  -0.10231
C          C       0.62967   0.00034   0.21713  -0.09842
C          C       0.01840   0.67011   0.22840  -0.09155
C          C       0.34436   0.34969   0.18080  -0.09292
C          C       0.65622   0.99684   0.31585  -0.09671
C          C       0.00989   0.69330   0.12503  -0.09605
C          C       0.34132   0.32226   0.16597  -0.13300
C          C       0.68474   0.01900   0.27879  -0.12767
C          C       0.97929   0.68791   0.08245  -0.14276
C          C       0.32662   0.15202   0.07141  -0.14963
C          C       0.86010   0.17806   0.04660  -0.15389
C          C       0.81842   0.69497   0.98307  -0.15232
C          C       0.35819   0.16611   0.08745  -0.14270
C          C       0.84645   0.19631   0.02414  -0.14659
C          C       0.80068   0.66497   0.95473  -0.14592
C          C       0.37776   0.19587   0.12417  -0.03340
C          C       0.81611   0.18376   0.03894  -0.03053
C          C       0.81388   0.64556   0.98714  -0.02490
C          C       0.34646   0.19339   0.63125   0.10933
C          C       0.79981   0.14532   0.57384   0.09743
C          C       0.85163   0.63822   0.53936   0.09415
C          C       0.31407   0.17960   0.61134   0.11482
C          C       0.81361   0.12637   0.60227   0.11352
C          C       0.86954   0.66841   0.57432   0.11061
C          C       0.31138   0.16642   0.08721   0.02192
C          C       0.84515   0.14592   0.08899   0.01634
C          C       0.85064   0.70818   0.04774   0.01010
C          C       0.33221   0.22302   0.68244   0.45742
C          C       0.77067   0.09729   0.68325   0.45389
C          C       0.90075   0.64864   0.66100   0.45102
C          C       0.26181   0.13412   0.55757   0.08783
C          C       0.85826   0.12135   0.58502   0.08373
C          C       0.87223   0.71950   0.55317   0.08448
C          C       0.40992   0.21136   0.11100   0.09511
C          C       0.80137   0.20243   0.01795   0.09431
C          C       0.79633   0.61394   0.95911   0.09495
C          C       0.26030   0.16729   0.98013  -0.11613
C          C       0.84584   0.10086   0.04717  -0.11519
C          C       0.89863   0.75696   0.03095  -0.11858
C          C       0.22868   0.15222   0.96022  -0.12962
C          C       0.86214   0.08720   0.04039  -0.12720
C          C       0.91547   0.78791   0.03449  -0.12934
C          C       0.19793   0.10236   0.53474   0.05831
C          C       0.88785   0.08877   0.58581   0.05099
C          C       0.90125   0.78266   0.55158   0.04940
C          C       0.21606   0.08672   0.61156  -0.10160
C          C       0.90511   0.11703   0.64269  -0.10612
C          C       0.87276   0.76363   0.59885  -0.10030
C          C       0.24735   0.10236   0.62213  -0.13694
C          C       0.89052   0.13295   0.64191  -0.13479
C          C       0.85857   0.73261   0.59929  -0.14383
C          C       0.40801   0.17534   0.62638  -0.14056
C          C       0.81315   0.22164   0.56843  -0.13939
C          C       0.77115   0.57651   0.48040  -0.13557
C          C       0.43778   0.18839   0.60720  -0.12819
C          C       0.79718   0.23691   0.55826  -0.12110
C          C       0.75346   0.54608   0.46458  -0.12445
C          C       0.46977   0.24094   0.04345   0.04969
C          C       0.77252   0.23761   0.98820   0.04563
C          C       0.76550   0.55136   0.93686   0.04105
C          C       0.45580   0.25798   0.04084  -0.10844
C          C       0.75576   0.21071   0.91680  -0.11528
C          C       0.79462   0.57032   0.89753  -0.11064
C          C       0.42673   0.24353   0.07381  -0.15538
C          C       0.76998   0.19361   0.93081  -0.14889
C          C       0.80947   0.60098   0.90661  -0.15378
C          C       0.16514   0.08682   0.52463   0.06942
C          C       0.90185   0.07149   0.57732   0.06966
C          C       0.91643   0.81549   0.54327   0.06989
C          C       0.50029   0.25475   0.01292   0.07566
C          C       0.75844   0.25588   0.98060   0.06866
C          C       0.74988   0.51886   0.93607   0.07372
C          C       0.11915   0.04514   0.56947   0.20608
C          C       0.94202   0.06150   0.61395   0.20633
C          C       0.92075   0.86115   0.55734   0.20523
C          C       0.54653   0.29467   0.95387   0.20572
C          C       0.71833   0.26750   0.91357   0.20567
C          C       0.74533   0.47351   0.91481   0.20772
C          C       0.10734   0.05936   0.62097  -0.18545
C          C       0.92724   0.02952   0.66506  -0.18269
C          C       0.95022   0.87310   0.67219  -0.19007
C          C       0.07650   0.04542   0.62281  -0.12072
C          C       0.93918   0.01179   0.65538  -0.12908
C          C       0.96656   0.90417   0.67493  -0.12588
C          C       0.05590   0.01700   0.57045   0.05337
C          C       0.96630   0.02485   0.59644   0.05662
C          C       0.95447   0.92450   0.56141   0.05792
C          C       0.06799   0.00302   0.51847  -0.12660
C          C       0.98106   0.05687   0.54823  -0.11286
C          C       0.92493   0.91240   0.44780  -0.12574
C          C       0.11515   0.03556   0.05549  -0.14808
C          C       0.97913   0.09556   0.02800  -0.15618
C          C       0.92045   0.90554   0.97392  -0.15879
C          C       0.55643   0.27825   0.90608  -0.17793
C          C       0.73296   0.29901   0.84549  -0.18616
C          C       0.71605   0.46225   0.79703  -0.19146
C          C       0.58656   0.29078   0.89331  -0.11457
C          C       0.72133   0.31800   0.84070  -0.12381
C          C       0.69916   0.43132   0.79088  -0.12478
C          C       0.60843   0.32013   0.92880   0.05526
C          C       0.69490   0.30668   0.90330   0.05011
C          C       0.71049   0.41038   0.90408   0.05816
C          C       0.58192   0.31558   0.46795  -0.13046
C          C       0.66826   0.25333   0.50414  -0.13074
C          C       0.72582   0.39806   0.50257  -0.12823
C          C       0.55183   0.30346   0.48011  -0.14678
C          C       0.68108   0.23544   0.50795  -0.16061
C          C       0.74564   0.42882   0.50008  -0.16391
C          C       0.02315   0.00230   0.57355   0.07693
C          C       0.97884   0.00601   0.58413   0.07921
C          C       0.97300   0.95746   0.56450   0.07994
C          C       0.64049   0.33343   0.91484   0.07778
C          C       0.68324   0.32699   0.90549   0.08022
C          C       0.69100   0.37735   0.90571   0.07755
C          C       0.00996   0.01897   0.58495  -0.17767
C          C       0.96039   0.97512   0.56995  -0.19533
C          C       0.00422   0.97130   0.56609  -0.19067
C          C       0.65251   0.31520   0.90977  -0.17859
C          C       0.70249   0.35821   0.90769  -0.19229
C          C       0.66010   0.36471   0.90825  -0.18894
C          C       0.34538   0.27728   0.60766   0.07914
C          C       0.71701   0.05855   0.63109   0.05821
C          C       0.93148   0.62516   0.66184   0.03607
C          C       0.38043   0.29540   0.61080   0.16710
C          C       0.69998   0.07835   0.51509   0.17826
C          C       0.91954   0.59075   0.75074   0.17767
C          C       0.33799   0.29913   0.64215  -0.00052
C          C       0.69392   0.03085   0.72806   0.00525
C          C       0.96561   0.63551   0.70574  -0.00128
C          C       0.36267   0.32845   0.63592   0.08098
C          C       0.66464   0.02954   0.65410   0.07941
C          C       0.97399   0.61472   0.84876   0.08086
C          C       0.38941   0.32912   0.60150  -0.28545
C          C       0.66547   0.05599   0.49932  -0.28654
C          C       0.94607   0.58818   0.91128  -0.29305
C          C       0.36027   0.35213   0.66233  -0.15513
C          C       0.63982   0.00561   0.72434  -0.15174
C          C       0.00480   0.62069   0.91576  -0.15430
C          C       0.33307   0.34621   0.69515  -0.09501
C          C       0.64448   0.98284   0.86718  -0.09528
C          C       0.02705   0.64785   0.84020  -0.09780
C          C       0.30852   0.31688   0.70211  -0.10195
C          C       0.67366   0.98402   0.93926  -0.09876
C          C       0.01863   0.66876   0.69941  -0.09544
C          C       0.31081   0.29313   0.67466  -0.13938
C          C       0.69863   0.00812   0.86949  -0.14638
C          C       0.98776   0.66265   0.63077  -0.12348
N          N       0.37343   0.23796   0.18822  -0.35611
N          N       0.77237   0.13224   0.11498  -0.36167
N          N       0.86615   0.64613   0.11040  -0.36090
N          N       0.32199   0.21610   0.14615  -0.47217
N          N       0.79384   0.10220   0.15183  -0.45889
N          N       0.89487   0.69427   0.16061  -0.45931
N          N       0.16590   0.07761   0.08047  -0.27962
N          N       0.93986   0.09831   0.10310  -0.29492
N          N       0.91105   0.85311   0.07382  -0.28263
N          N       0.50171   0.26224   0.49031  -0.30210
N          N       0.71981   0.22998   0.44444  -0.30247
N          N       0.75615   0.48160   0.40008  -0.29236
N          N       0.35137   0.26619   0.22001  -0.40865
N          N       0.74324   0.07846   0.21060  -0.41482
N          N       0.91987   0.66221   0.23904  -0.39986
N          N       0.35729   0.22140   0.67527  -0.35298
N          N       0.77244   0.12600   0.62594  -0.34955
N          N       0.87248   0.62629   0.59414  -0.36100
N          N       0.30599   0.19900   0.64084  -0.46025
N          N       0.79449   0.09628   0.66883  -0.45673
N          N       0.90025   0.67425   0.65002  -0.47482
N          N       0.15019   0.05766   0.57238  -0.28358
N          N       0.93115   0.08068   0.61848  -0.27980
N          N       0.90336   0.82993   0.55420  -0.27820
N          N       0.51675   0.28385   0.97133  -0.30549
N          N       0.72923   0.24738   0.92474  -0.28550
N          N       0.76304   0.50446   0.92520  -0.29456
N          N       0.33597   0.24781   0.73448  -0.41957
N          N       0.74640   0.07339   0.75892  -0.42712
N          N       0.92594   0.64292   0.74129  -0.39959
O          O       0.41508   0.29524   0.33041  -0.49088
O          O       0.71093   0.11510   0.11498  -0.48890
O          O       0.88423   0.59809   0.24031  -0.48582
O          O       0.39783   0.28347   0.77393  -0.48752
O          O       0.70899   0.10311   0.60185  -0.48946
O          O       0.89093   0.57904   0.79903  -0.48804

