data_crystal

_audit_creation_method 'AiiDA-DDEC plugin'

_cell_length_a        51.80688
_cell_length_b        51.81122
_cell_length_c         8.27607

_cell_angle_alpha     89.21588
_cell_angle_beta     90.28210
_cell_angle_gamma     120.09769

_symmetry_space_group_name_Hall 'P 1'
_symmetry_space_group_name_H-M  'P 1'

loop_
_symmetry_equiv_pos_as_xyz
 'x,y,z'

loop_
_atom_site_label
_atom_site_type_symbol
_atom_site_fract_x
_atom_site_fract_y
_atom_site_fract_z
_atom_site_charge
H          H       0.30497   0.11357   0.45553   0.11119
H          H       0.88650   0.19190   0.45554   0.11122
H          H       0.81055   0.69372   0.45986   0.10958
H          H       0.35801   0.13460   0.52344   0.10209
H          H       0.86432   0.22257   0.52586   0.10372
H          H       0.78007   0.64060   0.53315   0.10329
H          H       0.39268   0.15440   0.27146   0.10856
H          H       0.84713   0.24242   0.26504   0.11276
H          H       0.75725   0.60414   0.26186   0.11268
H          H       0.44750   0.17790   0.30778   0.10272
H          H       0.82218   0.27244   0.29950   0.10254
H          H       0.72727   0.54909   0.29986   0.10229
H          H       0.46025   0.25764   0.06966   0.11168
H          H       0.74429   0.20519   0.05740   0.11132
H          H       0.79727   0.53966   0.08448   0.11090
H          H       0.40527   0.23403   0.03205   0.09041
H          H       0.76952   0.17544   0.01924   0.09160
H          H       0.82691   0.59467   0.04066   0.09194
H          H       0.25767   0.09736   0.12013   0.10358
H          H       0.90431   0.16398   0.09243   0.10457
H          H       0.83654   0.74037   0.09615   0.10443
H          H       0.20322   0.07251   0.06021   0.11637
H          H       0.92762   0.13293   0.03847   0.11452
H          H       0.86584   0.79474   0.02727   0.11658
H          H       0.21912   0.15398   0.32681   0.10286
H          H       0.84932   0.06819   0.29616   0.10186
H          H       0.93560   0.78173   0.30598   0.10194
H          H       0.27322   0.17721   0.38312   0.10884
H          H       0.82515   0.09798   0.35255   0.11019
H          H       0.90664   0.72778   0.37446   0.10850
H          H       0.49847   0.21896   0.25153   0.06417
H          H       0.78071   0.28103   0.24522   0.06415
H          H       0.71921   0.49916   0.25008   0.06268
H          H       0.16797   0.11266   0.35978   0.06184
H          H       0.88987   0.05762   0.34090   0.06076
H          H       0.94413   0.83208   0.33199   0.06140
H          H       0.53980   0.24024   0.04163   0.10641
H          H       0.75900   0.30092   0.03203   0.10721
H          H       0.70082   0.45942   0.04171   0.10568
H          H       0.59491   0.26539   0.03858   0.10556
H          H       0.73310   0.33016   0.03133   0.10808
H          H       0.67044   0.40427   0.03788   0.10573
H          H       0.59930   0.33586   0.32780   0.10818
H          H       0.66347   0.26273   0.32915   0.10530
H          H       0.73521   0.39866   0.34104   0.10773
H          H       0.54421   0.31173   0.31938   0.11839
H          H       0.68856   0.23263   0.32095   0.11847
H          H       0.76640   0.45382   0.33609   0.11966
H          H       0.12342   0.08977   0.04865   0.10661
H          H       0.90875   0.03457   0.05783   0.10419
H          H       0.96312   0.87321   0.02247   0.10683
H          H       0.06848   0.06560   0.03286   0.10542
H          H       0.93318   0.00404   0.04595   0.10637
H          H       0.99396   0.92821   0.02049   0.10622
H          H       0.06743   0.99712   0.23753   0.10798
H          H       0.00462   0.07149   0.23729   0.10735
H          H       0.92987   0.93381   0.22323   0.10499
H          H       0.12249   0.02089   0.25967   0.11959
H          H       0.98175   0.10344   0.25997   0.12014
H          H       0.89841   0.87863   0.23252   0.11997
H          H       0.63996   0.36189   0.18857   0.10111
H          H       0.63684   0.27742   0.18070   0.10155
H          H       0.72128   0.35895   0.18653   0.10066
H          H       0.02511   0.96995   0.37545   0.10096
H          H       0.02992   0.05514   0.38619   0.10133
H          H       0.94465   0.97466   0.37397   0.10100
H          H       0.37522   0.23489   0.26179   0.28774
H          H       0.76693   0.14468   0.25593   0.29128
H          H       0.85589   0.62368   0.27013   0.28952
H          H       0.35235   0.26810   0.28161   0.22683
H          H       0.73409   0.09021   0.27771   0.22645
H          H       0.91060   0.64543   0.28611   0.22491
H          H       0.33828   0.31306   0.08520   0.08583
H          H       0.68808   0.03582   0.18395   0.07682
H          H       0.96687   0.65601   0.18225   0.07863
H          H       0.35082   0.30472   0.49663   0.07319
H          H       0.69478   0.04135   0.47307   0.07120
H          H       0.95511   0.65009   0.45689   0.07166
H          H       0.39498   0.35364   0.08521   0.09229
H          H       0.65311   0.05957   0.03332   0.09243
H          H       0.91831   0.57997   0.22567   0.10844
H          H       0.40780   0.34687   0.27230   0.10644
H          H       0.66325   0.08732   0.18342   0.11194
H          H       0.95432   0.61111   0.26205   0.10928
H          H       0.37254   0.34484   0.26311   0.11245
H          H       0.65600   0.05107   0.23994   0.10624
H          H       0.94405   0.59679   0.06278   0.09361
H          H       0.39741   0.30056   0.42696   0.08839
H          H       0.69872   0.09313   0.41028   0.09188
H          H       0.90356   0.59916   0.43969   0.09492
H          H       0.38373   0.27646   0.07208   0.10741
H          H       0.73628   0.11139   0.01189   0.10848
H          H       0.88977   0.62384   0.02541   0.11117
H          H       0.41358   0.30659   0.17551   0.10641
H          H       0.71015   0.12249   0.06352   0.11332
H          H       0.88044   0.58769   0.09617   0.11304
H          H       0.28058   0.26621   0.07143   0.05820
H          H       0.73739   0.02347   0.03325   0.05785
H          H       0.97615   0.71780   0.03855   0.05867
H          H       0.27554   0.28638   0.34590   0.12903
H          H       0.71706   0.98917   0.27695   0.12855
H          H       0.01221   0.73043   0.27011   0.12928
H          H       0.30458   0.31149   0.21717   0.10553
H          H       0.69106   0.99577   0.17281   0.10865
H          H       0.00532   0.69872   0.15926   0.10850
H          H       0.31269   0.29527   0.38481   0.11260
H          H       0.70615   0.01347   0.35939   0.10823
H          H       0.98887   0.69432   0.35219   0.11038
H          H       0.27933   0.22918   0.36553   0.12923
H          H       0.77150   0.05129   0.34427   0.12914
H          H       0.95104   0.72107   0.36613   0.12288
H          H       0.26473   0.21592   0.17290   0.13240
H          H       0.78629   0.05644   0.14802   0.13184
H          H       0.94289   0.73100   0.17612   0.13579
H          H       0.24869   0.23255   0.29392   0.11915
H          H       0.77004   0.02050   0.24327   0.11922
H          H       0.97984   0.75132   0.25545   0.11929
H          H       0.31371   0.25106   0.01758   0.05109
H          H       0.74741   0.07001   0.00627   0.04509
H          H       0.93090   0.67968   0.01315   0.04371
H          H       0.30360   0.11458   0.97461   0.11121
H          H       0.88681   0.19274   0.95349   0.10918
H          H       0.80767   0.69399   0.94782   0.10896
H          H       0.35691   0.13671   0.03919   0.10267
H          H       0.86567   0.22441   0.02393   0.10274
H          H       0.77626   0.64099   0.02352   0.10374
H          H       0.39540   0.15217   0.76806   0.11061
H          H       0.84652   0.24060   0.75489   0.11170
H          H       0.76294   0.60534   0.77743   0.11172
H          H       0.45043   0.17742   0.80368   0.10246
H          H       0.82213   0.27099   0.79000   0.10318
H          H       0.73206   0.55034   0.81634   0.10258
H          H       0.46029   0.25645   0.57165   0.11092
H          H       0.74202   0.20196   0.57355   0.11016
H          H       0.79893   0.53878   0.57823   0.11150
H          H       0.40519   0.23119   0.53393   0.09245
H          H       0.76661   0.17169   0.53505   0.09188
H          H       0.82977   0.59386   0.53633   0.09125
H          H       0.25844   0.09479   0.59777   0.10468
H          H       0.90382   0.16182   0.60651   0.10420
H          H       0.83812   0.74030   0.58667   0.10487
H          H       0.20400   0.07138   0.53837   0.11412
H          H       0.92800   0.13176   0.54873   0.11641
H          H       0.86735   0.79456   0.51818   0.11570
H          H       0.21701   0.15194   0.81299   0.10181
H          H       0.84559   0.06608   0.82593   0.10312
H          H       0.93116   0.78072   0.78803   0.10259
H          H       0.27122   0.17669   0.87167   0.10977
H          H       0.82244   0.09699   0.87825   0.10965
H          H       0.90213   0.72677   0.85481   0.11128
H          H       0.50033   0.21938   0.75465   0.06352
H          H       0.78007   0.27926   0.74430   0.06438
H          H       0.72235   0.49994   0.76192   0.06266
H          H       0.16661   0.11074   0.84904   0.06052
H          H       0.88625   0.05605   0.85989   0.06164
H          H       0.94111   0.83126   0.82340   0.06083
H          H       0.54140   0.24086   0.53803   0.10766
H          H       0.75872   0.29923   0.53579   0.10663
H          H       0.70209   0.46012   0.55697   0.10676
H          H       0.59655   0.26630   0.53747   0.10578
H          H       0.73374   0.32929   0.53483   0.10693
H          H       0.67141   0.40509   0.54958   0.10621
H          H       0.60009   0.33599   0.83011   0.10479
H          H       0.66337   0.26260   0.83189   0.10528
H          H       0.73729   0.39818   0.83576   0.10714
H          H       0.54489   0.31146   0.82052   0.11902
H          H       0.68746   0.23161   0.82375   0.11831
H          H       0.76852   0.45335   0.83643   0.11855
H          H       0.12462   0.08950   0.55474   0.10671
H          H       0.91016   0.03502   0.54229   0.10783
H          H       0.96391   0.87355   0.53008   0.10556
H          H       0.06966   0.06503   0.54096   0.10606
H          H       0.93395   0.00390   0.52915   0.10736
H          H       0.99470   0.92855   0.52721   0.10601
H          H       0.06595   0.99556   0.74743   0.10473
H          H       0.00159   0.07037   0.73801   0.10570
H          H       0.92796   0.93387   0.72894   0.10783
H          H       0.12073   0.01872   0.77426   0.11947
H          H       0.97801   0.10174   0.75840   0.11983
H          H       0.89628   0.87870   0.73927   0.11971
H          H       0.64154   0.36259   0.68759   0.10111
H          H       0.63730   0.27764   0.68290   0.10116
H          H       0.72231   0.35849   0.68774   0.10061
H          H       0.02354   0.96974   0.87401   0.10005
H          H       0.02839   0.05496   0.88739   0.10114
H          H       0.94309   0.97440   0.88331   0.10072
H          H       0.37630   0.23035   0.77986   0.29103
H          H       0.76645   0.14153   0.75648   0.28821
H          H       0.86122   0.62404   0.76376   0.28694
H          H       0.35572   0.26377   0.79984   0.22716
H          H       0.73387   0.08679   0.77504   0.22699
H          H       0.91581   0.64644   0.78184   0.22348
H          H       0.34750   0.31150   0.70211   0.07954
H          H       0.68786   0.02999   0.67788   0.07910
H          H       0.97224   0.65577   0.64791   0.08295
H          H       0.35075   0.29672   0.94374   0.07294
H          H       0.69494   0.04405   0.97555   0.07445
H          H       0.95530   0.65244   0.97893   0.07616
H          H       0.40640   0.34680   0.57004   0.09251
H          H       0.65098   0.05223   0.55001   0.09250
H          H       0.94623   0.59477   0.56619   0.09335
H          H       0.42395   0.33659   0.72360   0.11130
H          H       0.65987   0.07849   0.70737   0.10948
H          H       0.92280   0.58109   0.73971   0.10855
H          H       0.39427   0.34288   0.77498   0.10967
H          H       0.65487   0.04260   0.75307   0.10872
H          H       0.95960   0.61199   0.75763   0.11066
H          H       0.40348   0.31207   0.97648   0.09657
H          H       0.70329   0.09883   0.89368   0.08908
H          H       0.90382   0.60339   0.92209   0.08873
H          H       0.37635   0.26544   0.52864   0.11206
H          H       0.73259   0.10792   0.52234   0.10840
H          H       0.89289   0.62302   0.53465   0.11033
H          H       0.41326   0.29076   0.59257   0.11490
H          H       0.70449   0.11583   0.58308   0.11101
H          H       0.88355   0.58827   0.62710   0.10804
H          H       0.28535   0.26068   0.55069   0.05838
H          H       0.73942   0.02069   0.53677   0.05817
H          H       0.98536   0.71567   0.54376   0.05830
H          H       0.27122   0.28213   0.77919   0.12780
H          H       0.70600   0.01114   0.85490   0.10772
H          H       0.98529   0.69107   0.88177   0.11070
H          H       0.30469   0.30809   0.68158   0.10969
H          H       0.72056   0.98843   0.79589   0.12998
H          H       0.01279   0.72686   0.81479   0.13037
H          H       0.30573   0.29293   0.87312   0.11143
H          H       0.69366   0.99062   0.67400   0.11008
H          H       0.00818   0.69507   0.71426   0.10735
H          H       0.27917   0.22927   0.87512   0.12434
H          H       0.77089   0.04824   0.85464   0.12509
H          H       0.95291   0.72233   0.83445   0.13062
H          H       0.27082   0.21273   0.68334   0.13461
H          H       0.78761   0.05695   0.66171   0.13441
H          H       0.95042   0.73221   0.63393   0.13006
H          H       0.25010   0.22898   0.75955   0.11880
H          H       0.77289   0.02009   0.74415   0.11854
H          H       0.98524   0.75145   0.73765   0.11937
H          H       0.32288   0.25279   0.52588   0.04436
H          H       0.74663   0.06639   0.50201   0.04489
H          H       0.93647   0.68139   0.50610   0.04845
C          C       0.30018   0.15284   0.03715   0.01583
C          C       0.84854   0.15120   0.02534   0.01416
C          C       0.84922   0.69789   0.02183   0.01480
C          C       0.31685   0.13532   0.51208  -0.15447
C          C       0.86424   0.18113   0.50809  -0.15271
C          C       0.82139   0.68232   0.51330  -0.15009
C          C       0.34576   0.14937   0.06154  -0.14591
C          C       0.85289   0.20055   0.04914  -0.14569
C          C       0.80005   0.65228   0.04868  -0.15078
C          C       0.36276   0.17855   0.12077  -0.03588
C          C       0.82408   0.18858   0.11500  -0.03272
C          C       0.81214   0.63570   0.11795  -0.03480
C          C       0.34710   0.19385   0.14019   0.08693
C          C       0.80861   0.15760   0.13900   0.08873
C          C       0.84307   0.65167   0.14143   0.09264
C          C       0.31684   0.18219   0.09556   0.10779
C          C       0.81955   0.13878   0.09017   0.10549
C          C       0.86182   0.68159   0.08951   0.10551
C          C       0.39497   0.19251   0.15032   0.09161
C          C       0.80986   0.20654   0.14297   0.09081
C          C       0.79439   0.60346   0.15067   0.09141
C          C       0.26966   0.13768   0.49413   0.08174
C          C       0.86272   0.13205   0.48313   0.08200
C          C       0.87016   0.73013   0.48328   0.08251
C          C       0.40750   0.17692   0.22626  -0.13579
C          C       0.82468   0.23433   0.21928  -0.13923
C          C       0.76593   0.59003   0.22199  -0.13929
C          C       0.43826   0.19019   0.24655  -0.12277
C          C       0.81062   0.25104   0.23881  -0.12287
C          C       0.74923   0.55916   0.24357  -0.12438
C          C       0.45752   0.21955   0.19175   0.04568
C          C       0.78135   0.24042   0.18318   0.04439
C          C       0.76052   0.54076   0.19587   0.04584
C          C       0.44510   0.23524   0.11528  -0.10594
C          C       0.76653   0.21273   0.10512  -0.10766
C          C       0.78904   0.55413   0.12477  -0.10772
C          C       0.41450   0.22199   0.09589  -0.15589
C          C       0.78058   0.19620   0.08582  -0.15362
C          C       0.80551   0.58478   0.10270  -0.15193
C          C       0.24873   0.10901   0.04993  -0.13644
C          C       0.89182   0.14291   0.02979  -0.13527
C          C       0.85694   0.74927   0.02518  -0.13699
C          C       0.21954   0.09443   0.50424  -0.10760
C          C       0.90568   0.12493   0.50468  -0.11037
C          C       0.87531   0.77954   0.48410  -0.10826
C          C       0.20798   0.11107   0.42990   0.04952
C          C       0.89041   0.09812   0.41886   0.04764
C          C       0.90318   0.79170   0.40632   0.04918
C          C       0.22770   0.14104   0.38739  -0.12660
C          C       0.86121   0.08863   0.36533  -0.12445
C          C       0.91418   0.77263   0.36756  -0.12646
C          C       0.25811   0.15422   0.41929  -0.11598
C          C       0.84747   0.10525   0.39746  -0.11932
C          C       0.89804   0.74232   0.40621  -0.11844
C          C       0.48979   0.23348   0.21061   0.06788
C          C       0.76673   0.25800   0.20308   0.06809
C          C       0.74273   0.50842   0.21480   0.06683
C          C       0.17603   0.09756   0.39945   0.06939
C          C       0.90438   0.08019   0.38815   0.07182
C          C       0.92099   0.82367   0.37213   0.06849
C          C       0.53821   0.27392   0.18453   0.20029
C          C       0.72580   0.26505   0.17978   0.20085
C          C       0.73533   0.46040   0.19281   0.20165
C          C       0.12734   0.05727   0.40386   0.19832
C          C       0.94407   0.07115   0.39899   0.19982
C          C       0.92932   0.87224   0.37819   0.20048
C          C       0.55292   0.26081   0.10783  -0.18692
C          C       0.73847   0.29301   0.10069  -0.18580
C          C       0.70783   0.44600   0.11106  -0.18664
C          C       0.58399   0.27504   0.10681  -0.12092
C          C       0.72380   0.30940   0.10061  -0.12462
C          C       0.69081   0.41496   0.10910  -0.12255
C          C       0.60144   0.30240   0.18501   0.04920
C          C       0.69647   0.29886   0.18180   0.04900
C          C       0.70031   0.39721   0.19081   0.04929
C          C       0.58643   0.31518   0.26220  -0.12609
C          C       0.68412   0.27094   0.26132  -0.12414
C          C       0.72779   0.41184   0.27285  -0.12575
C          C       0.55554   0.30166   0.25928  -0.16056
C          C       0.69813   0.25406   0.25819  -0.16165
C          C       0.74530   0.44276   0.27161  -0.16159
C          C       0.11211   0.06985   0.48063  -0.18528
C          C       0.93040   0.04258   0.47164  -0.18479
C          C       0.95700   0.88678   0.45827  -0.18644
C          C       0.08112   0.05593   0.47282  -0.12415
C          C       0.94385   0.02513   0.46401  -0.12476
C          C       0.97425   0.91781   0.45672  -0.12416
C          C       0.06434   0.02940   0.38647   0.05004
C          C       0.97093   0.03518   0.38144   0.04868
C          C       0.96483   0.93547   0.37345   0.05045
C          C       0.07982   0.01712   0.30923  -0.12625
C          C       0.98420   0.06361   0.30696  -0.12358
C          C       0.93725   0.92070   0.29248  -0.12376
C          C       0.11064   0.03041   0.31996  -0.15965
C          C       0.97141   0.08154   0.31795  -0.16252
C          C       0.91957   0.88979   0.29644  -0.16018
C          C       0.03144   0.01435   0.38055   0.08106
C          C       0.98559   0.01701   0.37805   0.08101
C          C       0.98280   0.96843   0.37407   0.07987
C          C       0.63441   0.31778   0.18466   0.07991
C          C       0.68086   0.31617   0.18280   0.08092
C          C       0.68264   0.36426   0.18772   0.08061
C          C       0.65135   0.34908   0.18694  -0.18862
C          C       0.64956   0.30167   0.18258  -0.18862
C          C       0.69704   0.34744   0.18552  -0.18768
C          C       0.01408   0.98311   0.37613  -0.18685
C          C       0.01681   0.03094   0.38118  -0.18962
C          C       0.96888   0.98574   0.37473  -0.18788
C          C       0.33113   0.22588   0.19257   0.45676
C          C       0.77602   0.10952   0.19404   0.45452
C          C       0.89106   0.66776   0.19832   0.45617
C          C       0.32011   0.26517   0.12445   0.08936
C          C       0.73519   0.06064   0.11970   0.08832
C          C       0.94022   0.67680   0.12658   0.09080
C          C       0.34588   0.29694   0.07254  -0.13478
C          C       0.70247   0.05334   0.09727  -0.12840
C          C       0.94795   0.65163   0.10470  -0.13479
C          C       0.38791   0.33996   0.19722  -0.28343
C          C       0.66589   0.06852   0.14585  -0.28333
C          C       0.93581   0.60137   0.17546  -0.28463
C          C       0.39469   0.30054   0.09337  -0.29065
C          C       0.71242   0.10394   0.01729  -0.29350
C          C       0.89834   0.60845   0.04201  -0.29073
C          C       0.29130   0.26444   0.18289   0.06604
C          C       0.73766   0.03221   0.15381   0.06881
C          C       0.96834   0.70805   0.15955   0.07019
C          C       0.29645   0.29080   0.28841  -0.41125
C          C       0.71150   0.00649   0.24595  -0.41559
C          C       0.99493   0.70760   0.23999  -0.41601
C          C       0.26969   0.23383   0.25852  -0.41362
C          C       0.76811   0.04051   0.22679  -0.41492
C          C       0.96006   0.72906   0.24449  -0.41326
C          C       0.30156   0.15113   0.53303   0.01462
C          C       0.84858   0.14977   0.52302   0.01597
C          C       0.85272   0.69827   0.52770   0.01396
C          C       0.31558   0.13700   0.02308  -0.15172
C          C       0.86471   0.18249   0.00766  -0.15127
C          C       0.81796   0.68231   0.00434  -0.15074
C          C       0.34696   0.14713   0.55200  -0.14683
C          C       0.85182   0.19867   0.54988  -0.14755
C          C       0.80392   0.65223   0.55698  -0.14577
C          C       0.36387   0.17550   0.62108  -0.03514
C          C       0.82285   0.18615   0.61474  -0.03671
C          C       0.81647   0.63587   0.62317  -0.03453
C          C       0.34814   0.19050   0.64876   0.09115
C          C       0.80790   0.15511   0.63574   0.09160
C          C       0.84747   0.65210   0.64354   0.08884
C          C       0.31823   0.17980   0.60009   0.10486
C          C       0.81931   0.13673   0.58522   0.10588
C          C       0.86583   0.68214   0.59191   0.10734
C          C       0.39622   0.18986   0.64956   0.09167
C          C       0.80832   0.20379   0.64481   0.09323
C          C       0.79864   0.60361   0.65562   0.09136
C          C       0.26820   0.13869  -0.00097   0.08384
C          C       0.86189   0.13282   0.98691   0.08075
C          C       0.86711   0.72977   0.97872   0.08200
C          C       0.40956   0.17490   0.72374  -0.13749
C          C       0.82368   0.23217   0.71474  -0.13754
C          C       0.77070   0.59076   0.73276  -0.13684
C          C       0.44043   0.18914   0.74396  -0.12400
C          C       0.80987   0.24910   0.73480  -0.12235
C          C       0.75353   0.55996   0.75488  -0.12160
C          C       0.45896   0.21874   0.69073   0.04462
C          C       0.78015   0.23820   0.68619   0.04463
C          C       0.76375   0.54102   0.70113   0.04433
C          C       0.44573   0.23379   0.61582  -0.10636
C          C       0.76467   0.20983   0.61558  -0.10479
C          C       0.79169   0.55375   0.62362  -0.10641
C          C       0.41506   0.21962   0.59629  -0.15297
C          C       0.77847   0.19305   0.59581  -0.15846
C          C       0.80874   0.58440   0.60195  -0.15682
C          C       0.24983   0.10753   0.53558  -0.13667
C          C       0.89210   0.14162   0.53562  -0.13640
C          C       0.85911   0.74930   0.52123  -0.13602
C          C       0.21842   0.09512   0.01766  -0.10914
C          C       0.90484   0.12565   0.00128  -0.10764
C          C       0.87324   0.77952   0.98840  -0.10896
C          C       0.20655   0.11045   0.93220   0.04711
C          C       0.88829   0.09764   0.92791   0.04887
C          C       0.90038   0.79131   0.90354   0.04759
C          C       0.22593   0.14002   0.88108  -0.12598
C          C       0.85849   0.08758   0.88444  -0.12783
C          C       0.91048   0.77189   0.85659  -0.12446
C          C       0.25634   0.15406   0.91441  -0.11975
C          C       0.84537   0.10484   0.91377  -0.11646
C          C       0.89424   0.74154   0.89430  -0.11914
C          C       0.49127   0.23338   0.71019   0.06790
C          C       0.76579   0.25607   0.70527   0.06787
C          C       0.74558   0.50877   0.72212   0.07063
C          C       0.17463   0.09623   0.89927   0.07294
C          C       0.90155   0.07902   0.89942   0.06927
C          C       0.91838   0.82326   0.86924   0.07227
C          C       0.53939   0.27409   0.68332   0.20228
C          C       0.72514   0.26362   0.68337   0.20151
C          C       0.73728   0.46047   0.69894   0.20288
C          C       0.12594   0.05627   0.90885   0.20118
C          C       0.94141   0.06999   0.90540   0.19899
C          C       0.92766   0.87215   0.87945   0.20142
C          C       0.55432   0.26127   0.60588  -0.18716
C          C       0.73822   0.29161   0.60425  -0.18591
C          C       0.70936   0.44645   0.62146  -0.18549
C          C       0.58538   0.27569   0.60575  -0.12210
C          C       0.72405   0.30845   0.60362  -0.12313
C          C       0.69219   0.41545   0.61733  -0.12269
C          C       0.60258   0.30294   0.68522   0.04835
C          C       0.69674   0.29832   0.68413   0.05075
C          C       0.70191   0.39735   0.69270   0.05058
C          C       0.58738   0.31544   0.76324  -0.12238
C          C       0.68393   0.27039   0.76375  -0.12366
C          C       0.72970   0.41163   0.77188  -0.12622
C          C       0.55647   0.30171   0.75972  -0.16297
C          C       0.69746   0.25306   0.76103  -0.16164
C          C       0.74729   0.44251   0.77329  -0.16129
C          C       0.11081   0.06961   0.97845  -0.18525
C          C       0.92858   0.04192   0.98366  -0.18468
C          C       0.95582   0.88652   0.95455  -0.18664
C          C       0.07985   0.05591   0.96916  -0.12274
C          C       0.94244   0.02482   0.97689  -0.12431
C          C       0.97313   0.91754   0.95325  -0.12278
C          C       0.06288   0.02892   0.88707   0.04906
C          C       0.96908   0.03469   0.88977   0.04981
C          C       0.96334   0.93530   0.87459   0.05028
C          C       0.07830   0.01594   0.81620  -0.12227
C          C       0.98151   0.06264   0.81046  -0.12377
C          C       0.93549   0.92068   0.79615  -0.12586
C          C       0.10908   0.02894   0.82935  -0.16135
C          C       0.96834   0.08023   0.82041  -0.16033
C          C       0.91771   0.88979   0.80047  -0.16200
C          C       0.02995   0.01412   0.88142   0.08086
C          C       0.98403   0.01676   0.88454   0.08085
C          C       0.98125   0.96822   0.87708   0.07962
C          C       0.63552   0.31829   0.68504   0.08066
C          C       0.68159   0.31604   0.68410   0.07942
C          C       0.68400   0.36444   0.68798   0.07994
C          C       0.65271   0.34957   0.68662  -0.18688
C          C       0.65034   0.30188   0.68378  -0.18788
C          C       0.69808   0.34731   0.68612  -0.18902
C          C       0.01253   0.98290   0.87685  -0.18667
C          C       0.01530   0.03073   0.88406  -0.18817
C          C       0.96733   0.98549   0.88168  -0.18864
C          C       0.33273   0.22259   0.70992   0.45858
C          C       0.77571   0.10680   0.68684   0.45638
C          C       0.89580   0.66841   0.69285   0.45456
C          C       0.32544   0.26420   0.64061   0.09041
C          C       0.73515   0.05722   0.61739   0.09072
C          C       0.94512   0.67703   0.61800   0.08687
C          C       0.35124   0.29709   0.62131  -0.13391
C          C       0.70195   0.04890   0.59794  -0.12777
C          C       0.95147   0.65096   0.58746  -0.12907
C          C       0.40244   0.33366   0.68282  -0.28278
C          C       0.66372   0.06080   0.66311  -0.28277
C          C       0.93996   0.60146   0.67883  -0.28466
C          C       0.39261   0.28911   0.54573  -0.28852
C          C       0.70843   0.09857   0.53265  -0.29178
C          C       0.90083   0.60728   0.55724  -0.29223
C          C       0.29426   0.26135   0.67209   0.06877
C          C       0.73900   0.02966   0.65568   0.06935
C          C       0.97371   0.70697   0.65980   0.06880
C          C       0.29432   0.28765   0.75627  -0.41686
C          C       0.71334   0.00377   0.74990  -0.41491
C          C       0.99600   0.70460   0.77345  -0.41672
C          C       0.27234   0.23137   0.75232  -0.41452
C          C       0.76942   0.03927   0.73347  -0.41572
C          C       0.96521   0.72964   0.71981  -0.41486
N          N       0.50724   0.26155   0.18110  -0.28224
N          N       0.73863   0.24691   0.17467  -0.28259
N          N       0.75389   0.49141   0.19074  -0.28353
N          N       0.15815   0.06924   0.41722  -0.27740
N          N       0.93240   0.09021   0.41373  -0.27779
N          N       0.91037   0.84133   0.38874  -0.27765
N          N       0.30772   0.20270   0.12843  -0.43332
N          N       0.79867   0.10910   0.12421  -0.42981
N          N       0.89148   0.69073   0.12443  -0.43023
N          N       0.35592   0.22204   0.20143  -0.38708
N          N       0.78084   0.13839   0.20779  -0.38097
N          N       0.86230   0.64339   0.21261  -0.38343
N          N       0.33217   0.25180   0.23947  -0.40160
N          N       0.74955   0.08468   0.24145  -0.39981
N          N       0.91588   0.66644   0.24825  -0.40027
N          N       0.37353   0.30790   0.16777  -0.05897
N          N       0.69762   0.07845   0.12928  -0.05808
N          N       0.92399   0.62155   0.15173  -0.05921
N          N       0.50839   0.26142   0.67861  -0.28112
N          N       0.73760   0.24513   0.67951  -0.28454
N          N       0.75622   0.49139   0.69590  -0.28451
N          N       0.15672   0.06816   0.92589  -0.27879
N          N       0.92971   0.08903   0.91831  -0.27611
N          N       0.90843   0.84131   0.89210  -0.27878
N          N       0.30954   0.20048   0.63750  -0.42953
N          N       0.79859   0.10687   0.61657  -0.42881
N          N       0.89569   0.69146   0.62315  -0.43094
N          N       0.35687   0.21784   0.72008  -0.38226
N          N       0.78011   0.13547   0.70255  -0.38397
N          N       0.86713   0.64396   0.71025  -0.38293
N          N       0.33465   0.24879   0.76116  -0.40355
N          N       0.74953   0.08181   0.73551  -0.39993
N          N       0.92080   0.66708   0.73908  -0.40052
N          N       0.38105   0.30184   0.66274  -0.06664
N          N       0.69575   0.07264   0.64256  -0.05909
N          N       0.92845   0.62180   0.65191  -0.05703

