data_crystal

_audit_creation_method 'AiiDA-DDEC plugin'

_cell_length_a        51.42079
_cell_length_b        51.40777
_cell_length_c         8.17305

_cell_angle_alpha     88.93584
_cell_angle_beta     89.72780
_cell_angle_gamma     120.00916

_symmetry_space_group_name_Hall 'P 1'
_symmetry_space_group_name_H-M  'P 1'

loop_
_symmetry_equiv_pos_as_xyz
 'x,y,z'

loop_
_atom_site_label
_atom_site_type_symbol
_atom_site_fract_x
_atom_site_fract_y
_atom_site_fract_z
_atom_site_charge
H          H       0.30381   0.11620   0.20697   0.11070
H          H       0.88689   0.18766   0.15735   0.11059
H          H       0.81229   0.69754   0.18475   0.11152
H          H       0.35533   0.13650   0.30424   0.10504
H          H       0.86734   0.21987   0.25045   0.10700
H          H       0.78040   0.64492   0.27723   0.10499
H          H       0.27642   0.18331   0.05416   0.10557
H          H       0.81993   0.09335   0.03026   0.10657
H          H       0.90412   0.72446   0.01874   0.10892
H          H       0.22001   0.15870   0.44120   0.09549
H          H       0.84196   0.06426   0.44966   0.09763
H          H       0.93979   0.77960   0.45865   0.09841
H          H       0.20376   0.07679   0.20460   0.11445
H          H       0.92545   0.12638   0.17810   0.11643
H          H       0.87560   0.79859   0.20313   0.11656
H          H       0.25665   0.10034   0.29741   0.10547
H          H       0.90182   0.15609   0.26416   0.10596
H          H       0.84584   0.74511   0.29818   0.10437
H          H       0.38963   0.15795   0.55337   0.10804
H          H       0.84672   0.23335   0.50767   0.11016
H          H       0.76685   0.60810   0.53722   0.10948
H          H       0.43960   0.17920   0.09484   0.10580
H          H       0.82058   0.26530   0.05249   0.10537
H          H       0.73471   0.55496   0.07540   0.10564
H          H       0.46235   0.25688   0.29852   0.11143
H          H       0.74652   0.20632   0.28887   0.11080
H          H       0.79599   0.53923   0.28135   0.10982
H          H       0.40788   0.23348   0.23993   0.09600
H          H       0.77025   0.17588   0.21932   0.09456
H          H       0.82588   0.59430   0.22262   0.09328
H          H       0.17199   0.11875   0.97674   0.06405
H          H       0.88479   0.05299   0.96117   0.06359
H          H       0.94675   0.83010   0.94989   0.06301
H          H       0.49106   0.22315   0.08577   0.06871
H          H       0.77744   0.27290   0.05071   0.06901
H          H       0.72663   0.50323   0.07567   0.06897
H          H       0.12419   0.09421   0.14151   0.10508
H          H       0.90862   0.03005   0.13353   0.10623
H          H       0.97221   0.87649   0.12466   0.10665
H          H       0.06931   0.06850   0.10462   0.10809
H          H       0.93455   0.00088   0.10252   0.10848
H          H       0.00236   0.93169   0.09379   0.10523
H          H       0.06990  -0.00041   0.32076   0.10563
H          H       0.99887   0.07024   0.30128   0.10881
H          H       0.92966   0.92941   0.29878   0.10727
H          H       0.12491   0.02467   0.36130   0.11997
H          H       0.97453   0.10091   0.34320   0.11976
H          H       0.89979   0.87398   0.33725   0.11977
H          H       0.53651   0.23439   0.06514   0.10988
H          H       0.75951   0.30109   0.07501   0.10905
H          H       0.69297   0.45729   0.06328   0.10830
H          H       0.59147   0.26153   0.08707   0.10852
H          H       0.73144   0.32792   0.09805   0.10739
H          H       0.66510   0.40212   0.08603   0.10710
H          H       0.60153   0.33425   0.28855   0.10728
H          H       0.66487   0.26196   0.31823   0.10842
H          H       0.73643   0.39955   0.28135   0.10563
H          H       0.54594   0.30672   0.26695   0.11691
H          H       0.69319   0.23474   0.29588   0.11741
H          H       0.76410   0.45530   0.25528   0.11719
H          H       0.02693   0.05542   0.44884   0.10076
H          H       0.94317   0.97218   0.44143   0.10169
H          H       0.02638   0.97157   0.44981   0.10159
H          H       0.63903   0.27645   0.46096   0.10168
H          H       0.72339   0.35932   0.44807   0.10123
H          H       0.64059   0.36072   0.44261   0.10128
H          H       0.37754   0.24102   0.44370   0.29641
H          H       0.76306   0.13917   0.42712   0.29585
H          H       0.86193   0.62213   0.43778   0.29512
H          H       0.34243   0.26843   0.49884   0.26489
H          H       0.73435   0.07668   0.49448   0.26289
H          H       0.92407   0.65626   0.49915   0.26275
H          H       0.33583   0.31258   0.35483   0.07950
H          H       0.68932   0.02629   0.36989   0.08062
H          H       0.97513   0.66414   0.38004   0.07995
H          H       0.31448   0.30213   0.17189   0.08031
H          H       0.69850   0.01436   0.18513   0.08111
H          H       0.98865   0.68638   0.19607   0.08321
H          H       0.36624   0.29745   0.21871   0.32093
H          H       0.70436   0.07141   0.22432   0.32011
H          H       0.93277   0.63284   0.23108   0.32416
H          H       0.28370   0.26735   0.01296   0.08945
H          H       0.73510   0.02039   0.01845   0.09008
H          H       0.98183   0.71157   0.01135   0.08972
H          H       0.28210   0.23548   0.48802   0.12022
H          H       0.76678   0.04813   0.47579   0.11924
H          H       0.95089   0.71686   0.48361   0.11726
H          H       0.25894   0.28907   0.36312   0.09923
H          H       0.70908   0.97193   0.37258   0.09963
H          H       0.02776   0.74499   0.33775   0.09761
H          H       0.21125   0.27432   0.21896   0.09735
H          H       0.72036   0.93658   0.22686   0.09747
H          H       0.05670   0.79247   0.17464   0.09895
H          H       0.18233   0.22349   0.10028   0.10179
H          H       0.77059   0.95529   0.09575   0.10354
H          H       0.03081   0.81855   0.06048   0.10292
H          H       0.20177   0.18795   0.12370   0.09683
H          H       0.80905   0.00951   0.10796   0.09879
H          H       0.97564   0.79622   0.10547   0.09320
H          H       0.24967   0.20304   0.26605   0.10815
H          H       0.79747   0.04477   0.25205   0.10822
H          H       0.94660   0.74776   0.25945   0.10617
H          H       0.30688   0.25053   0.19954   0.06584
H          H       0.75060   0.05774   0.19290   0.06560
H          H       0.94343   0.69248   0.19386   0.06423
H          H       0.29991   0.11676   0.69540   0.11033
H          H       0.88403   0.18806   0.66881   0.11049
H          H       0.81390   0.69538   0.66691   0.11066
H          H       0.35142   0.13671   0.79221   0.10436
H          H       0.86313   0.21901   0.76228   0.10533
H          H       0.78243   0.64337   0.76676   0.10338
H          H       0.27288   0.18282   0.52920   0.10650
H          H       0.81809   0.09353   0.53358   0.10587
H          H       0.91000   0.72582   0.54076   0.10513
H          H       0.22361   0.16005   0.96622   0.09969
H          H       0.84332   0.06340   0.94876   0.09831
H          H       0.93366   0.77761   0.92550   0.09749
H          H       0.20027   0.07758   0.70398   0.11642
H          H       0.92393   0.12765   0.67832   0.11688
H          H       0.87276   0.79555   0.67388   0.11601
H          H       0.25313   0.10198   0.79736   0.10791
H          H       0.89999   0.15700   0.76481   0.10554
H          H       0.84327   0.74178   0.76153   0.10639
H          H       0.38541   0.15611   0.03203   0.10810
H          H       0.84369   0.23405   0.99339   0.11081
H          H       0.76695   0.60942   0.01151   0.11126
H          H       0.44388   0.18167   0.61481   0.10450
H          H       0.82266   0.26329   0.58001   0.10358
H          H       0.73799   0.55335   0.60193   0.10427
H          H       0.45851   0.25765   0.80723   0.10981
H          H       0.74130   0.20368   0.79641   0.11113
H          H       0.79607   0.53669   0.81266   0.11041
H          H       0.40416   0.23498   0.74728   0.09352
H          H       0.76444   0.17240   0.73569   0.09520
H          H       0.82886   0.59130   0.75145   0.09506
H          H       0.16800   0.11726   0.46183   0.06244
H          H       0.88284   0.05363   0.46473   0.06263
H          H       0.94905   0.83127   0.47192   0.06429
H          H       0.49531   0.22639   0.60056   0.06922
H          H       0.77806   0.26986   0.58045   0.06738
H          H       0.73344   0.50265   0.58897   0.06891
H          H       0.12133   0.09358   0.63260   0.10674
H          H       0.90635   0.03001   0.64512   0.10696
H          H       0.96887   0.87630   0.64089   0.10471
H          H       0.06644   0.06786   0.60096   0.10489
H          H       0.93158   0.00017   0.61194   0.10821
H          H       0.99780   0.93152   0.61105   0.10572
H          H       0.07401   0.00212   0.81296   0.10700
H          H       0.00234   0.07200   0.79896   0.10782
H          H       0.93139   0.93200   0.81852   0.10511
H          H       0.12877   0.02686   0.85954   0.11957
H          H       0.97714   0.10193   0.83858   0.11963
H          H       0.90038   0.87682   0.86000   0.12022
H          H       0.54070   0.23514   0.57114   0.11135
H          H       0.76655   0.30496   0.55425   0.10918
H          H       0.69607   0.45822   0.54863   0.10924
H          H       0.59566   0.26249   0.59503   0.10607
H          H       0.73826   0.33162   0.58087   0.10648
H          H       0.66900   0.40311   0.57819   0.10718
H          H       0.59736   0.33378   0.78524   0.10903
H          H       0.66281   0.26383   0.78756   0.10486
H          H       0.73304   0.39846   0.79409   0.10660
H          H       0.54167   0.30667   0.76763   0.11660
H          H       0.69101   0.23635   0.76661   0.11541
H          H       0.76145   0.45424   0.77466   0.11623
H          H       0.03062   0.05701   0.94032   0.10087
H          H       0.94682   0.97381   0.94424   0.09989
H          H       0.03005   0.97315   0.94836   0.10098
H          H       0.63470   0.27547   0.94917   0.10323
H          H       0.71908   0.35811   0.95258   0.10245
H          H       0.63646   0.35993   0.94624   0.10170
H          H       0.37392   0.24100   0.93777   0.29660
H          H       0.75858   0.13597   0.92581   0.29462
H          H       0.86451   0.62202   0.93951   0.29383
H          H       0.34384   0.27183   0.97652   0.25920
H          H       0.72920   0.07414   0.98108   0.25851
H          H       0.92657   0.65544   0.99589   0.26091
H          H       0.32981   0.31150   0.88808   0.07261
H          H       0.69034   0.02134   0.89289   0.07336
H          H       0.97862   0.66597   0.87740   0.07354
H          H       0.30522   0.30248   0.72001   0.08914
H          H       0.69972   0.00677   0.72112   0.08825
H          H       0.99175   0.68931   0.69701   0.08662
H          H       0.36339   0.30945   0.70929   0.33376
H          H       0.69638   0.06007   0.71456   0.32796
H          H       0.93731   0.63383   0.72711   0.32825
H          H       0.29016   0.27304   0.50156   0.09773
H          H       0.72893   0.01972   0.50764   0.09579
H          H       0.98243   0.71191   0.49495   0.09425
H          H       0.27978   0.23172   0.98023   0.11828
H          H       0.77099   0.05120   0.96884   0.11944
H          H       0.95276   0.71964   0.97272   0.12067
H          H       0.25232   0.28311   0.86437   0.09740
H          H       0.71571   0.97271   0.87626   0.09870
H          H       0.03029   0.73987   0.86741   0.09774
H          H       0.20609   0.26767   0.70472   0.09861
H          H       0.72767   0.93954   0.71372   0.09797
H          H       0.06529   0.78601   0.70708   0.09693
H          H       0.18011   0.21754   0.57636   0.10213
H          H       0.77718   0.96082   0.56988   0.10244
H          H       0.04590   0.81600   0.56464   0.10104
H          H       0.20113   0.18337   0.60626   0.09568
H          H       0.81428   0.01536   0.58799   0.09436
H          H       0.99150   0.79937   0.58261   0.09734
H          H       0.24814   0.19955   0.75993   0.10470
H          H       0.80168   0.04860   0.74584   0.10647
H          H       0.95662   0.75314   0.74286   0.10759
H          H       0.30403   0.25374   0.69263   0.05891
H          H       0.74893   0.05456   0.69242   0.05915
H          H       0.94595   0.69386   0.69739   0.06080
C          C       0.31595   0.13927   0.24765  -0.15018
C          C       0.86395   0.17718   0.20452  -0.15045
C          C       0.82290   0.68504   0.22855  -0.15268
C          C       0.34527   0.15075   0.30331  -0.14233
C          C       0.85294   0.19558   0.25820  -0.14471
C          C       0.80470   0.65519   0.28230  -0.14409
C          C       0.36282   0.18067   0.35232  -0.02379
C          C       0.82326   0.18363   0.31641  -0.02384
C          C       0.81690   0.63749   0.33635  -0.02437
C          C       0.34826   0.19755   0.34524   0.09037
C          C       0.80607   0.15221   0.31828   0.09095
C          C       0.84835   0.65222   0.33530   0.09049
C          C       0.31892   0.18669   0.28462   0.10633
C          C       0.81631   0.13317   0.25818   0.10773
C          C       0.86719   0.68193   0.27435   0.10537
C          C       0.30175   0.15662   0.23486   0.01123
C          C       0.84629   0.14559   0.20168   0.01001
C          C       0.85448   0.69933   0.22051   0.01174
C          C       0.27059   0.14337   0.17922   0.08084
C          C       0.85937   0.12725   0.15000   0.08234
C          C       0.87263   0.73086   0.16364   0.08188
C          C       0.39470   0.19417   0.39459   0.08089
C          C       0.81000   0.20212   0.36139   0.08039
C          C       0.79877   0.60522   0.37788   0.08278
C          C       0.26060   0.16009   0.08825  -0.12056
C          C       0.84291   0.10051   0.06399  -0.12261
C          C       0.89795   0.74060   0.06083  -0.12098
C          C       0.23086   0.14692   0.03897  -0.12662
C          C       0.85616   0.08377   0.01812  -0.12699
C          C       0.91455   0.77057   0.00857  -0.12351
C          C       0.21017   0.11666   0.07845   0.04824
C          C       0.88619   0.09319   0.05629   0.04858
C          C       0.90654   0.79171   0.05818   0.04523
C          C       0.22004   0.09992   0.17030  -0.10686
C          C       0.90257   0.11971   0.14422  -0.11041
C          C       0.88123   0.78201   0.16145  -0.10988
C          C       0.24963   0.11309   0.22003  -0.13326
C          C       0.88935   0.13632   0.19032  -0.13368
C          C       0.86462   0.75213   0.21299  -0.13509
C          C       0.40552   0.17954   0.49692  -0.13545
C          C       0.82485   0.22750   0.45917  -0.13800
C          C       0.77329   0.59308   0.48121  -0.13858
C          C       0.43603   0.19293   0.53129  -0.11988
C          C       0.81129   0.24426   0.49961  -0.12264
C          C       0.75707   0.56229   0.51709  -0.12025
C          C       0.45685   0.22094   0.45990   0.04936
C          C       0.78286   0.23669   0.43902   0.04799
C          C       0.76510   0.54260   0.44521   0.04908
C          C       0.44612   0.23552   0.35604  -0.11296
C          C       0.76818   0.21162   0.33828  -0.11209
C          C       0.79031   0.55465   0.33933  -0.11189
C          C       0.41569   0.22250   0.32552  -0.15232
C          C       0.78139   0.19460   0.30175  -0.15111
C          C       0.80696   0.58534   0.30836  -0.15316
C          C       0.17908   0.10319   0.02562   0.06900
C          C       0.89997   0.07562   0.00691   0.06917
C          C       0.92462   0.82321   0.00575   0.07150
C          C       0.48895   0.23470   0.49169   0.07050
C          C       0.76863   0.25432   0.47837   0.07108
C          C       0.74766   0.51022   0.47759   0.07109
C          C       0.13042   0.06254   0.00079   0.19846
C          C       0.94086   0.06785   0.98542   0.19822
C          C       0.93427   0.87276   0.99262   0.19965
C          C       0.53930   0.26956   0.42044   0.20022
C          C       0.73149   0.26746   0.42482   0.19933
C          C       0.73276   0.46075   0.40419   0.19910
C          C       0.11330   0.07455   0.06523  -0.18181
C          C       0.92859   0.03877   0.05558  -0.18111
C          C       0.96362   0.88861   0.05367  -0.18207
C          C       0.08232   0.05995   0.04422  -0.12617
C          C       0.94332   0.02242   0.03800  -0.12709
C          C       0.98055   0.91980   0.03606  -0.12330
C          C       0.06378   0.03171   0.45796   0.05217
C          C       0.96712   0.03285   0.45403   0.05143
C          C       0.96610   0.93477   0.45196   0.05149
C          C       0.08099   0.01995   0.39146  -0.12341
C          C       0.97891   0.06155   0.37929  -0.12567
C          C       0.93814   0.91792   0.37604  -0.12714
C          C       0.11187   0.03400   0.41257  -0.15973
C          C       0.96527   0.07876   0.40106  -0.16015
C          C       0.92137   0.88685   0.39602  -0.15845
C          C       0.54961   0.25626   0.00442  -0.16734
C          C       0.73845   0.29277   0.01068  -0.16497
C          C       0.70203   0.44463   0.00463  -0.16528
C          C       0.58074   0.27144   0.01517  -0.12423
C          C       0.72266   0.30811   0.02291  -0.12694
C          C       0.68611   0.41342   0.01609  -0.12610
C          C       0.60287   0.30068   0.44517   0.05597
C          C       0.69935   0.29892   0.45149   0.05618
C          C       0.70085   0.39709   0.43410   0.05483
C          C       0.58822   0.31302   0.35518  -0.13096
C          C       0.68672   0.27102   0.37476  -0.12925
C          C       0.72809   0.41239   0.34496  -0.12891
C          C       0.55716   0.29769   0.34175  -0.15093
C          C       0.70249   0.25573   0.36078  -0.14928
C          C       0.74361   0.44354   0.32902  -0.15306
C          C       0.03067   0.01548   0.44691   0.07952
C          C       0.98319   0.01579   0.44353   0.07922
C          C       0.98286   0.96798   0.44334   0.08122
C          C       0.63597   0.31670   0.45273   0.07938
C          C       0.68317   0.31587   0.45612   0.07774
C          C       0.68398   0.36393   0.44621   0.07870
C          C       0.01470   0.03102   0.44508  -0.18626
C          C       0.96759   0.98426   0.44117  -0.18934
C          C       0.01436   0.98396   0.44557  -0.18634
C          C       0.65165   0.30087   0.45819  -0.18481
C          C       0.69898   0.34742   0.45090  -0.18661
C          C       0.65248   0.34821   0.44780  -0.18435
C          C       0.33418   0.23209   0.36133   0.45359
C          C       0.77088   0.10388   0.34735   0.45228
C          C       0.89683   0.66607   0.35755   0.45212
C          C       0.31382   0.26488   0.30637   0.11262
C          C       0.73675   0.05082   0.30469   0.11177
C          C       0.95005   0.68602   0.30773   0.11262
C          C       0.32940   0.29781   0.24891  -0.00583
C          C       0.70357   0.03396   0.25860  -0.00742
C          C       0.96835   0.67092   0.26681  -0.00496
C          C       0.28582   0.25526   0.41552  -0.26303
C          C       0.74621   0.03221   0.41321  -0.26301
C          C       0.96746   0.71457   0.40966  -0.26219
C          C       0.25743   0.24705   0.32420   0.11921
C          C       0.75247   0.01066   0.32175   0.11882
C          C       0.98531   0.74323   0.30941   0.11910
C          C       0.24649   0.26702   0.30904  -0.16229
C          C       0.73084   0.98016   0.31258  -0.16391
C          C       0.01630   0.75597   0.28372  -0.16057
C          C       0.21952   0.25860   0.22941  -0.09663
C          C       0.73731   0.96023   0.23229  -0.09663
C          C       0.03265   0.78291   0.19416  -0.09237
C          C       0.20320   0.23005   0.16354  -0.09694
C          C       0.76555   0.97066   0.15963  -0.09974
C          C       0.01816   0.79762   0.13048  -0.09982
C          C       0.21415   0.21009   0.17658  -0.07879
C          C       0.78714   0.00116   0.16624  -0.07942
C          C       0.98718   0.78498   0.15483  -0.08371
C          C       0.24105   0.21853   0.25622  -0.14381
C          C       0.78065   0.02099   0.24667  -0.14280
C          C       0.97082   0.75786   0.24233  -0.14870
C          C       0.31221   0.13981   0.73612  -0.14913
C          C       0.86090   0.17700   0.71370  -0.15022
C          C       0.82472   0.68339   0.71535  -0.15049
C          C       0.34142   0.15101   0.79230  -0.14427
C          C       0.84908   0.19466   0.76747  -0.14527
C          C       0.80674   0.65382   0.77267  -0.14316
C          C       0.35902   0.18087   0.84251  -0.02743
C          C       0.81903   0.18208   0.82174  -0.02790
C          C       0.81904   0.63645   0.83185  -0.02793
C          C       0.34476   0.19800   0.83394   0.08966
C          C       0.80236   0.15059   0.82139   0.08922
C          C       0.85051   0.65139   0.83146   0.09006
C          C       0.31568   0.18759   0.77044   0.10769
C          C       0.81356   0.13227   0.76182   0.10774
C          C       0.86916   0.68101   0.76827   0.10711
C          C       0.29831   0.15745   0.72194   0.00910
C          C       0.84374   0.14540   0.70745   0.01068
C          C       0.85635   0.69808   0.71025   0.01101
C          C       0.26710   0.14398   0.66666   0.08146
C          C       0.85735   0.12767   0.65351   0.08059
C          C       0.87426   0.72970   0.65511   0.08062
C          C       0.39071   0.19399   0.88704   0.08368
C          C       0.80559   0.20056   0.86333   0.08350
C          C       0.80033   0.60448   0.87778   0.08432
C          C       0.25707   0.15992   0.56908  -0.12059
C          C       0.84114   0.10100   0.56667  -0.12127
C          C       0.90195   0.74105   0.57167  -0.12122
C          C       0.22732   0.14624   0.51928  -0.12660
C          C       0.85464   0.08455   0.51972  -0.12612
C          C       0.91860   0.77132   0.52537  -0.12736
C          C       0.20670   0.11629   0.56501   0.04891
C          C       0.88464   0.09403   0.55851   0.04834
C          C       0.90807   0.79118   0.56000   0.04832
C          C       0.21657   0.10038   0.66415  -0.11307
C          C       0.90093   0.12070   0.64538  -0.11057
C          C       0.88040   0.77992   0.64364  -0.10929
C          C       0.24614   0.11404   0.71434  -0.13439
C          C       0.88751   0.13711   0.69188  -0.13240
C          C       0.86393   0.74983   0.69049  -0.13234
C          C       0.40136   0.17827   0.98188  -0.13703
C          C       0.82135   0.22743   0.94918  -0.13742
C          C       0.77327   0.59352   0.96690  -0.13836
C          C       0.43180   0.19126   0.01699  -0.11934
C          C       0.80827   0.24488   0.98288  -0.12206
C          C       0.75522   0.56292   0.00281  -0.11990
C          C       0.45273   0.21996   0.95367   0.04723
C          C       0.77914   0.23636   0.92948   0.04760
C          C       0.76318   0.54210   0.94673   0.05126
C          C       0.44218   0.23568   0.85786  -0.10883
C          C       0.76345   0.20971   0.84136  -0.10844
C          C       0.79027   0.55296   0.85754  -0.10818
C          C       0.41183   0.22305   0.82680  -0.15530
C          C       0.77637   0.19221   0.81001  -0.15490
C          C       0.80855   0.58349   0.82554  -0.15439
C          C       0.17554   0.10222   0.51306   0.07039
C          C       0.89820   0.07614   0.51146   0.06934
C          C       0.92563   0.82289   0.51160   0.06781
C          C       0.48476   0.23324   0.98472   0.06715
C          C       0.76555   0.25475   0.96356   0.06366
C          C       0.74385   0.50992   0.97881   0.06730
C          C       0.12704   0.06116   0.49639   0.19986
C          C       0.93852   0.06740   0.49399   0.19811
C          C       0.93252   0.87124   0.48809   0.19686
C          C       0.53508   0.26913   0.91745   0.19698
C          C       0.72705   0.26644   0.91873   0.19784
C          C       0.72975   0.45979   0.91900   0.19765
C          C       0.11016   0.07351   0.55965  -0.18204
C          C       0.92608   0.03839   0.56551  -0.18474
C          C       0.96076   0.88784   0.56137  -0.18150
C          C       0.07913   0.05885   0.54167  -0.12451
C          C       0.94041   0.02166   0.54678  -0.12734
C          C       0.97703   0.91902   0.54434  -0.12423
C          C       0.06733   0.03331   0.95595   0.05171
C          C       0.97039   0.03411   0.94814   0.05226
C          C       0.96925   0.93626   0.95412   0.05163
C          C       0.08479   0.02199   0.88761  -0.12396
C          C       0.98205   0.06288   0.87454  -0.12611
C          C       0.94025   0.92003   0.88860  -0.12291
C          C       0.11556   0.03591   0.91201  -0.16044
C          C       0.96794   0.07968   0.89504  -0.15927
C          C       0.92283   0.88906   0.90996  -0.15906
C          C       0.55384   0.25700   0.51034  -0.17114
C          C       0.74416   0.29524   0.50365  -0.16842
C          C       0.70531   0.44555   0.49202  -0.16973
C          C       0.58497   0.27233   0.52208  -0.12519
C          C       0.72830   0.31051   0.51666  -0.12498
C          C       0.68980   0.41436   0.50658  -0.12449
C          C       0.59864   0.29989   0.93931   0.05683
C          C       0.69497   0.29791   0.94464   0.05858
C          C       0.69703   0.39607   0.94297   0.05761
C          C       0.58404   0.31248   0.85116  -0.13238
C          C       0.68357   0.27154   0.85415  -0.13198
C          C       0.72465   0.41128   0.85744  -0.12789
C          C       0.55295   0.29737   0.83959  -0.14992
C          C       0.69933   0.25621   0.84095  -0.14655
C          C       0.74055   0.44246   0.84491  -0.14886
C          C       0.03424   0.01701   0.94338   0.07803
C          C       0.98678   0.01734   0.93988   0.07924
C          C       0.98641   0.96948   0.94404   0.07907
C          C       0.63171   0.31583   0.94846   0.07773
C          C       0.67877   0.31481   0.95208   0.07992
C          C       0.67979   0.36292   0.95066   0.07863
C          C       0.01830   0.03259   0.93968  -0.18673
C          C       0.97124   0.98583   0.94157  -0.18551
C          C       0.01794   0.98545   0.94397  -0.18599
C          C       0.64728   0.29989   0.95092  -0.18481
C          C       0.69467   0.34631   0.95303  -0.18274
C          C       0.64829   0.34734   0.94927  -0.18634
C          C       0.33145   0.23319   0.84678   0.45678
C          C       0.76798   0.10174   0.84577   0.45478
C          C       0.89920   0.66599   0.85730   0.45740
C          C       0.31027   0.26551   0.80824   0.11006
C          C       0.73665   0.04822   0.80929   0.11111
C          C       0.95265   0.68722   0.81027   0.11168
C          C       0.32281   0.29900   0.77351  -0.00221
C          C       0.70331   0.02753   0.77704  -0.00251
C          C       0.97157   0.67299   0.76603  -0.00247
C          C       0.28165   0.25166   0.91793  -0.26680
C          C       0.75035   0.03320   0.91637  -0.26736
C          C       0.96958   0.71555   0.91382  -0.26318
C          C       0.25339   0.24243   0.82256   0.12215
C          C       0.75775   0.01286   0.82069   0.12200
C          C       0.99111   0.74334   0.81548   0.12002
C          C       0.24137   0.26148   0.80503  -0.16286
C          C       0.73707   0.98209   0.81005  -0.16308
C          C       0.02179   0.75279   0.80345  -0.16389
C          C       0.21511   0.25260   0.71720  -0.09803
C          C       0.74398   0.96338   0.72075  -0.09534
C          C       0.04151   0.77890   0.71446  -0.10026
C          C       0.20042   0.22442   0.64581  -0.10023
C          C       0.77185   0.97525   0.64104  -0.09859
C          C       0.03072   0.79585   0.63547  -0.09957
C          C       0.21232   0.20530   0.66208  -0.08232
C          C       0.79261   0.00594   0.65055  -0.08305
C          C       0.00010   0.78646   0.64542  -0.08041
C          C       0.23867   0.21430   0.74889  -0.15076
C          C       0.78558   0.02464   0.73906  -0.15033
C          C       0.98048   0.76044   0.73477  -0.14306
N          N       0.16092   0.07453   0.03398  -0.27757
N          N       0.92860   0.08625   0.01464  -0.27672
N          N       0.91523   0.84205   0.02405  -0.27717
N          N       0.50830   0.25595   0.39574  -0.30238
N          N       0.74571   0.25082   0.39610  -0.30068
N          N       0.74977   0.49194   0.37896  -0.30010
N          N       0.35745   0.22667   0.39425  -0.37073
N          N       0.77699   0.13282   0.37627  -0.37076
N          N       0.86794   0.64270   0.38929  -0.37170
N          N       0.31097   0.20890   0.29494  -0.44037
N          N       0.79370   0.10317   0.27669  -0.44077
N          N       0.89729   0.68979   0.28852  -0.43772
N          N       0.33711   0.26015   0.38336  -0.45553
N          N       0.74252   0.07926   0.37733  -0.45432
N          N       0.92160   0.66263   0.38339  -0.45869
N          N       0.15768   0.07355   0.52634  -0.27788
N          N       0.92668   0.08621   0.52271  -0.27594
N          N       0.91422   0.84027   0.51489  -0.27737
N          N       0.50406   0.25590   0.89587  -0.30375
N          N       0.74092   0.24932   0.89292  -0.30327
N          N       0.74766   0.49093   0.89512  -0.30625
N          N       0.35424   0.22720   0.88297  -0.37558
N          N       0.77318   0.13039   0.87626  -0.37312
N          N       0.87036   0.64245   0.88968  -0.37304
N          N       0.30818   0.21018   0.77838  -0.45085
N          N       0.79152   0.10202   0.77736  -0.44854
N          N       0.89931   0.68931   0.78498  -0.44833
N          N       0.33470   0.26119   0.86906  -0.45481
N          N       0.74020   0.07647   0.87169  -0.45390
N          N       0.92431   0.66342   0.88400  -0.45548
O          O       0.35566   0.30489   0.15029  -0.47619
O          O       0.69660   0.05326   0.15957  -0.47101
O          O       0.95112   0.64507   0.16647  -0.47345
O          O       0.34740   0.31117   0.65630  -0.47880
O          O       0.69211   0.04134   0.66391  -0.47682
O          O       0.95510   0.64758   0.66233  -0.47719

