data_crystal

_audit_creation_method 'AiiDA-DDEC plugin'

_cell_length_a        51.29602
_cell_length_b        51.17506
_cell_length_c         8.21630

_cell_angle_alpha     90.83295
_cell_angle_beta     90.49818
_cell_angle_gamma     120.20344

_symmetry_space_group_name_Hall 'P 1'
_symmetry_space_group_name_H-M  'P 1'

loop_
_symmetry_equiv_pos_as_xyz
 'x,y,z'

loop_
_atom_site_label
_atom_site_type_symbol
_atom_site_fract_x
_atom_site_fract_y
_atom_site_fract_z
_atom_site_charge
H          H       0.30690   0.12110   0.04113   0.10658
H          H       0.88049   0.18712   0.03216   0.10521
H          H       0.81523   0.69236   0.01691   0.10530
H          H       0.36026   0.14327   0.11909   0.10346
H          H       0.85972   0.21925   0.10809   0.10681
H          H       0.78313   0.63960   0.09042   0.10490
H          H       0.28684   0.19785   0.31214   0.27249
H          H       0.80681   0.09356   0.32885   0.27367
H          H       0.90905   0.71404   0.33473   0.27431
H          H       0.35110   0.26254   0.01530   0.27059
H          H       0.73691   0.08776   0.00466   0.26919
H          H       0.91230   0.65035   0.01933   0.26750
H          H       0.27127   0.18575   0.07106   0.08812
H          H       0.81500   0.08516   0.09200   0.09017
H          H       0.91710   0.73074   0.09756   0.09186
H          H       0.21747   0.16067   0.46208   0.09543
H          H       0.83641   0.05335   0.49384   0.09779
H          H       0.94665   0.78386   0.49884   0.09734
H          H       0.20435   0.07430   0.05676   0.11411
H          H       0.92443   0.13081   0.99272   0.11328
H          H       0.86953   0.79263   0.98946   0.11259
H          H       0.25863   0.09698   0.13818   0.11038
H          H       0.90412   0.16351   0.08189   0.10879
H          H       0.83795   0.73963   0.07665   0.10920
H          H       0.39163   0.15274   0.35671   0.10260
H          H       0.85100   0.24180   0.35632   0.10311
H          H       0.75957   0.60823   0.33030   0.10009
H          H       0.44602   0.17401   0.42537   0.10006
H          H       0.82941   0.27372   0.44233   0.09948
H          H       0.72794   0.55461   0.41016   0.09833
H          H       0.46409   0.26213   0.28721   0.11095
H          H       0.74153   0.20424   0.27784   0.11249
H          H       0.79913   0.53757   0.28271   0.11288
H          H       0.40922   0.24088   0.22152   0.11432
H          H       0.76304   0.17170   0.19399   0.11563
H          H       0.83126   0.59171   0.20522   0.11476
H          H       0.16765   0.11784   0.41922   0.05745
H          H       0.87928   0.04859   0.42331   0.05674
H          H       0.95088   0.83119   0.42404   0.05803
H          H       0.49750   0.21589   0.43830   0.06209
H          H       0.78720   0.28286   0.45445   0.06155
H          H       0.72002   0.50443   0.44113   0.06026
H          H       0.31626   0.26134   0.25378   0.04924
H          H       0.74193   0.05872   0.24410   0.04959
H          H       0.94243   0.68281   0.26036   0.04981
H          H       0.33750   0.29994   0.06267   0.04101
H          H       0.70094   0.03631   0.04983   0.04279
H          H       0.96281   0.66311   0.06606   0.04391
H          H       0.12094   0.09253   0.07368   0.10496
H          H       0.90492   0.02646   0.05044   0.10608
H          H       0.97307   0.87857   0.05148   0.10635
H          H       0.06586   0.06644   0.02734   0.10716
H          H       0.93169   0.99810   0.01421   0.10637
H          H       0.00147   0.93372   0.01319   0.10475
H          H       0.06851   0.99814   0.21934   0.10749
H          H       0.99610   0.06901   0.20292   0.10531
H          H       0.92692   0.92575   0.19634   0.10775
H          H       0.12365   0.02337   0.27108   0.12028
H          H       0.97131   0.09925   0.24990   0.12025
H          H       0.89837   0.87023   0.23718   0.12023
H          H       0.54457   0.23939   0.28616   0.10744
H          H       0.76191   0.30397   0.30789   0.10665
H          H       0.69619   0.45577   0.29942   0.10634
H          H       0.59991   0.26480   0.32343   0.10516
H          H       0.73633   0.33358   0.34019   0.10491
H          H       0.66719   0.40068   0.33692   0.10509
H          H       0.59698   0.33349   0.13694   0.10602
H          H       0.66718   0.26348   0.15202   0.10620
H          H       0.73736   0.40521   0.14817   0.10489
H          H       0.54171   0.30949   0.09056   0.11881
H          H       0.69094   0.23195   0.10631   0.12190
H          H       0.76871   0.46023   0.10143   0.11898
H          H       0.02513   0.05498   0.33801   0.10089
H          H       0.94138   0.97048   0.33683   0.10202
H          H       0.02540   0.97115   0.34011   0.10010
H          H       0.64068   0.27759   0.48932   0.10112
H          H       0.72451   0.36204   0.50334   0.10111
H          H       0.64039   0.36132   0.48825   0.09960
H          H       0.31207   0.31478   0.26086   0.08600
H          H       0.68886   0.00341   0.22987   0.08461
H          H       0.99677   0.68302   0.25414   0.08482
H          H       0.32136   0.33399   0.45031   0.09178
H          H       0.66702   0.99314   0.40601   0.09243
H          H       0.00672   0.67152   0.43337   0.09350
H          H       0.26591   0.30397   0.40099   0.08800
H          H       0.69491   0.96548   0.38051   0.08749
H          H       0.03601   0.72722   0.40716   0.08755
H          H       0.27942   0.29526   0.07719   0.07949
H          H       0.70644   0.98327   0.06261   0.08045
H          H       0.01709   0.71990   0.08684   0.08012
H          H       0.26113   0.25935   0.25120   0.08110
H          H       0.74144   0.00393   0.24612   0.08182
H          H       0.99848   0.73654   0.26904   0.07997
H          H       0.24034   0.24697   0.43085   0.08856
H          H       0.75170   0.99482   0.43271   0.08708
H          H       0.00860   0.75647   0.45606   0.08694
H          H       0.28241   0.24573   0.07054   0.08583
H          H       0.75536   0.03661   0.06433   0.08830
H          H       0.96548   0.71892   0.08081   0.08697
H          H       0.27159   0.22291   0.38982   0.08323
H          H       0.77833   0.05071   0.39410   0.08421
H          H       0.95267   0.72853   0.40911   0.08413
H          H       0.40089   0.32017   0.26971   0.11442
H          H       0.68671   0.08833   0.23395   0.11293
H          H       0.91124   0.59785   0.24054   0.11343
H          H       0.37134   0.28225   0.27883   0.11093
H          H       0.72369   0.09443   0.25363   0.11258
H          H       0.90714   0.63011   0.25230   0.10861
H          H       0.38969   0.30282   0.46138   0.09706
H          H       0.70429   0.09583   0.42877   0.09744
H          H       0.90324   0.60914   0.42978   0.09765
H          H       0.39775   0.35972   0.33739   0.10902
H          H       0.64545   0.04747   0.31032   0.10746
H          H       0.95082   0.59570   0.33752   0.10893
H          H       0.38286   0.34891   0.53676   0.09608
H          H       0.65681   0.04461   0.51194   0.09263
H          H       0.95315   0.61104   0.53800   0.09326
H          H       0.36394   0.35885   0.38802   0.10642
H          H       0.64435   0.01391   0.36914   0.10664
H          H       0.98458   0.62800   0.40608   0.10564
H          H       0.30429   0.11748   0.56179   0.10740
H          H       0.87620   0.18525   0.53684   0.10749
H          H       0.81548   0.69193   0.53033   0.10420
H          H       0.35819   0.14048   0.62992   0.10457
H          H       0.85367   0.21595   0.61230   0.10355
H          H       0.78459   0.63881   0.59987   0.10321
H          H       0.28566   0.19621   0.81735   0.27461
H          H       0.80507   0.09088   0.83561   0.27400
H          H       0.91001   0.71517   0.84410   0.27393
H          H       0.35141   0.26385   0.51715   0.26998
H          H       0.74108   0.09276   0.50966   0.26977
H          H       0.90921   0.64929   0.52374   0.27010
H          H       0.27062   0.18332   0.55582   0.08854
H          H       0.81397   0.08358   0.58753   0.09023
H          H       0.91712   0.73146   0.59422   0.09213
H          H       0.21736   0.16313   0.99323   0.09592
H          H       0.83552   0.05289   0.00750   0.09648
H          H       0.94804   0.78319   0.00844   0.09780
H          H       0.20152   0.07245   0.57910   0.11556
H          H       0.92439   0.13282   0.50826   0.11349
H          H       0.86720   0.79179   0.50250   0.11285
H          H       0.25518   0.09504   0.67119   0.10901
H          H       0.90212   0.16354   0.60286   0.10916
H          H       0.83738   0.73932   0.60146   0.10899
H          H       0.39113   0.15251   0.86842   0.10259
H          H       0.84554   0.23776   0.85886   0.10247
H          H       0.76081   0.60709   0.81558   0.09903
H          H       0.44548   0.17519   0.94099   0.09960
H          H       0.82408   0.27011   0.93903   0.09991
H          H       0.72882   0.55344   0.89083   0.09888
H          H       0.46237   0.26128   0.77251   0.11216
H          H       0.73587   0.19962   0.78402   0.11203
H          H       0.80224   0.53783   0.80039   0.11181
H          H       0.40753   0.23867   0.70246   0.11344
H          H       0.75738   0.16676   0.70707   0.11285
H          H       0.83483   0.59204   0.72811   0.11341
H          H       0.16764   0.11997   0.95220   0.05874
H          H       0.87762   0.04591   0.94208   0.05813
H          H       0.95368   0.83163   0.93337   0.05910
H          H       0.49678   0.21721   0.94255   0.06157
H          H       0.78234   0.27884   0.95877   0.06144
H          H       0.72090   0.50326   0.92406   0.06109
H          H       0.31654   0.26125   0.75154   0.04949
H          H       0.73857   0.05439   0.74424   0.04973
H          H       0.94533   0.68352   0.75873   0.04993
H          H       0.33618   0.30001   0.56523   0.04087
H          H       0.70246   0.04074   0.54445   0.04494
H          H       0.96010   0.66126   0.56349   0.04439
H          H       0.12049   0.09431   0.54053   0.10638
H          H       0.90494   0.02841   0.54230   0.10683
H          H       0.97079   0.87802   0.53984   0.10627
H          H       0.06554   0.06888   0.49328   0.10750
H          H       0.93003   0.99876   0.50054   0.10590
H          H       0.99873   0.93303   0.50315   0.10865
H          H       0.07131   0.00408   0.69271   0.10517
H          H       0.99535   0.06743   0.70417   0.10599
H          H       0.93062   0.92647   0.69878   0.10755
H          H       0.12674   0.02981   0.74353   0.12005
H          H       0.96842   0.09612   0.74249   0.12088
H          H       0.90199   0.87082   0.73733   0.12013
H          H       0.54313   0.24178   0.78174   0.10712
H          H       0.75832   0.30156   0.81344   0.10815
H          H       0.69924   0.45586   0.78644   0.10632
H          H       0.59834   0.26632   0.82190   0.10629
H          H       0.73417   0.33238   0.85252   0.10642
H          H       0.66883   0.40089   0.82473   0.10729
H          H       0.59827   0.33369   0.62250   0.10598
H          H       0.66959   0.26402   0.63755   0.10766
H          H       0.73930   0.40629   0.63485   0.10887
H          H       0.54302   0.30929   0.57434   0.11880
H          H       0.69474   0.23381   0.59929   0.11972
H          H       0.76912   0.46154   0.58895   0.11925
H          H       0.02603   0.05546   0.84731   0.10251
H          H       0.94343   0.96981   0.84790   0.10188
H          H       0.02864   0.97285   0.84312   0.10273
H          H       0.63842   0.27742   0.00114   0.10133
H          H       0.72293   0.36114   0.01642   0.10176
H          H       0.63961   0.36185   0.98611   0.10132
H          H       0.31437   0.31575   0.75882   0.08613
H          H       0.68535   0.99719   0.74106   0.08535
H          H       0.00074   0.68457   0.76106   0.08576
H          H       0.32414   0.33490   0.94830   0.09267
H          H       0.66600   0.98708   0.92545   0.09230
H          H       0.01046   0.67444   0.94504   0.09308
H          H       0.26865   0.30627   0.89915   0.08783
H          H       0.69541   0.96119   0.88230   0.08915
H          H       0.03886   0.72988   0.91029   0.08777
H          H       0.27726   0.29363   0.57912   0.08096
H          H       0.70520   0.98770   0.56011   0.07955
H          H       0.01471   0.71654   0.58526   0.07938
H          H       0.26232   0.26080   0.74958   0.08067
H          H       0.74001   0.00095   0.73966   0.08280
H          H       0.00062   0.73711   0.76179   0.08310
H          H       0.24159   0.24923   0.92961   0.08807
H          H       0.75238   0.99239   0.92116   0.08840
H          H       0.01062   0.75859   0.94439   0.08794
H          H       0.28164   0.24438   0.57129   0.08820
H          H       0.75624   0.04009   0.56865   0.08657
H          H       0.96291   0.71690   0.58629   0.08690
H          H       0.27161   0.22364   0.89061   0.08357
H          H       0.77692   0.04814   0.88746   0.08407
H          H       0.95464   0.72952   0.90160   0.08409
H          H       0.40179   0.31817   0.76564   0.11412
H          H       0.68123   0.08038   0.73803   0.11063
H          H       0.91477   0.59889   0.74935   0.11307
H          H       0.37171   0.28059   0.77856   0.11211
H          H       0.71867   0.08773   0.75633   0.10818
H          H       0.90963   0.63048   0.76526   0.10734
H          H       0.39086   0.30144   0.95893   0.09872
H          H       0.69921   0.08885   0.93241   0.09674
H          H       0.90783   0.61000   0.94168   0.09651
H          H       0.40006   0.35856   0.83640   0.10996
H          H       0.64084   0.03881   0.82711   0.10978
H          H       0.95529   0.59804   0.83588   0.10763
H          H       0.38438   0.34836   0.03420   0.09534
H          H       0.65453   0.03774   0.02619   0.09425
H          H       0.95696   0.61233   0.03805   0.09383
H          H       0.36655   0.35866   0.88085   0.10539
H          H       0.64175   0.00632   0.88757   0.10595
H          H       0.98865   0.63029   0.90835   0.10581
C          C       0.31782   0.14197   0.11356  -0.14301
C          C       0.86011   0.17754   0.10370  -0.14342
C          C       0.82467   0.68204   0.09442  -0.14495
C          C       0.34826   0.15474   0.15718  -0.15132
C          C       0.84808   0.19581   0.14551  -0.15619
C          C       0.80637   0.65178   0.13526  -0.15291
C          C       0.36464   0.18265   0.24209   0.01365
C          C       0.82064   0.18485   0.22762   0.01426
C          C       0.81721   0.63572   0.22387   0.01368
C          C       0.34854   0.19739   0.28333   0.11573
C          C       0.80601   0.15415   0.26994   0.11777
C          C       0.84780   0.65223   0.27347   0.11639
C          C       0.31767   0.18396   0.23709   0.10423
C          C       0.81898   0.13617   0.22950   0.10294
C          C       0.86589   0.68310   0.23257   0.10303
C          C       0.30123   0.15628   0.15236  -0.03183
C          C       0.84580   0.14662   0.14320  -0.03274
C          C       0.85551   0.69908   0.14085  -0.03092
C          C       0.33326   0.22668   0.38130   0.45911
C          C       0.77714   0.11047   0.37302   0.45952
C          C       0.89160   0.66745   0.38333   0.45603
C          C       0.26919   0.14306   0.10811   0.09989
C          C       0.85785   0.12708   0.09386   0.09718
C          C       0.87477   0.73068   0.09312   0.09797
C          C       0.39672   0.19535   0.28428   0.09061
C          C       0.80833   0.20440   0.27157   0.08799
C          C       0.79778   0.60375   0.26452   0.09068
C          C       0.25672   0.16132   0.06952  -0.17058
C          C       0.83908   0.09547   0.07231  -0.17072
C          C       0.90630   0.74401   0.07485  -0.17141
C          C       0.22646   0.14862   0.02469  -0.13677
C          C       0.85062   0.07721   0.02318  -0.13865
C          C       0.92386   0.77367   0.02383  -0.14106
C          C       0.20738   0.11706   0.01708   0.04926
C          C       0.88156   0.08973   0.99368   0.05360
C          C       0.91084   0.79160   0.99213   0.05424
C          C       0.21950   0.09867   0.05883  -0.09288
C          C       0.90046   0.12127   0.01423  -0.09184
C          C       0.87949   0.77859   0.01189  -0.09202
C          C       0.24967   0.11139   0.10314  -0.12947
C          C       0.88889   0.13936   0.06326  -0.13072
C          C       0.86202   0.74898   0.06024  -0.13031
C          C       0.40753   0.17665   0.34033  -0.14348
C          C       0.82704   0.23359   0.33831  -0.14649
C          C       0.76820   0.59275   0.31890  -0.14318
C          C       0.43799   0.18859   0.37880  -0.13445
C          C       0.81496   0.25146   0.38660  -0.13419
C          C       0.75051   0.56271   0.36385  -0.13509
C          C       0.45855   0.21959   0.36095   0.05109
C          C       0.78388   0.24067   0.36772   0.04946
C          C       0.76178   0.54273   0.35409   0.05245
C          C       0.44783   0.23828   0.30274  -0.10062
C          C       0.76535   0.21185   0.29596  -0.10114
C          C       0.79098   0.55345   0.29378  -0.10089
C          C       0.41745   0.22644   0.26655  -0.11310
C          C       0.77729   0.19393   0.24976  -0.10994
C          C       0.80869   0.58342   0.25101  -0.11100
C          C       0.17490   0.10170   0.45339   0.07074
C          C       0.89518   0.07292   0.44373   0.06967
C          C       0.92661   0.82251   0.44002   0.06784
C          C       0.49038   0.23208   0.40297   0.06850
C          C       0.77109   0.25914   0.41982   0.06878
C          C       0.74325   0.51152   0.40512   0.06964
C          C       0.31543   0.26362   0.38676   0.11022
C          C       0.73914   0.05588   0.37644   0.10904
C          C       0.94579   0.68328   0.39302   0.10887
C          C       0.33146   0.29776   0.43240   0.04002
C          C       0.70499   0.03902   0.41174   0.04396
C          C       0.96178   0.66523   0.43097   0.04350
C          C       0.12615   0.06095   0.40583   0.19898
C          C       0.93587   0.06571   0.39503   0.19707
C          C       0.93282   0.87004   0.38681   0.19751
C          C       0.53993   0.27240   0.43044   0.19902
C          C       0.73033   0.26695   0.45389   0.19676
C          C       0.73475   0.46260   0.44290   0.19663
C          C       0.10933   0.07391   0.46420  -0.17847
C          C       0.92413   0.03679   0.46190  -0.18066
C          C       0.96169   0.88816   0.45847  -0.17831
C          C       0.07825   0.05940   0.43789  -0.12631
C          C       0.93850   0.02013   0.43884  -0.12516
C          C       0.97739   0.91929   0.43817  -0.12802
C          C       0.06266   0.03156   0.35224   0.05380
C          C       0.96503   0.03150   0.34821   0.05212
C          C       0.96514   0.93362   0.34601   0.05344
C          C       0.07975   0.01915   0.29063  -0.12570
C          C       0.97632   0.06016   0.27912  -0.12381
C          C       0.93649   0.91536   0.27268  -0.12875
C          C       0.11072   0.03325   0.31834  -0.15460
C          C       0.96236   0.07714   0.30374  -0.15452
C          C       0.92049   0.88426   0.29402  -0.15427
C          C       0.55625   0.25954   0.36403  -0.18346
C          C       0.74235   0.29575   0.38534  -0.18315
C          C       0.70530   0.44513   0.37721  -0.18137
C          C       0.58747   0.27392   0.38562  -0.12437
C          C       0.72782   0.31236   0.40345  -0.12492
C          C       0.68899   0.41397   0.39838  -0.12466
C          C       0.60337   0.30114   0.47640   0.05223
C          C       0.70101   0.30115   0.49125   0.05121
C          C       0.70105   0.39910   0.48734   0.05038
C          C       0.58531   0.31365   0.05693  -0.12644
C          C       0.68690   0.27168   0.07576  -0.12623
C          C       0.72911   0.41615   0.06684  -0.12455
C          C       0.55434   0.30021   0.03245  -0.15987
C          C       0.70016   0.25403   0.05177  -0.16196
C          C       0.74666   0.44704   0.04255  -0.15767
C          C       0.02937   0.01508   0.33736   0.07847
C          C       0.98140   0.01467   0.33540   0.07831
C          C       0.98150   0.96691   0.33512   0.07994
C          C       0.63664   0.31754   0.49079   0.08034
C          C       0.68453   0.31792   0.49899   0.07949
C          C       0.68445   0.36576   0.49765   0.08044
C          C       0.01308   0.03038   0.33483  -0.18526
C          C       0.96591   0.98292   0.33416  -0.18706
C          C       0.01313   0.98334   0.33617  -0.18588
C          C       0.65285   0.30218   0.49417  -0.18722
C          C       0.69997   0.34967   0.50180  -0.18623
C          C       0.65281   0.34928   0.49342  -0.18752
C          C       0.31121   0.31139   0.39295  -0.20184
C          C       0.69033   0.00507   0.36340  -0.20377
C          C       0.99555   0.68350   0.38749  -0.20520
C          C       0.27834   0.29310   0.44565  -0.15358
C          C       0.70660   0.98900   0.42679  -0.15344
C          C       0.01279   0.71617   0.45180  -0.15309
C          C       0.26337   0.26030   0.38468  -0.15395
C          C       0.73973   0.00549   0.37886  -0.15619
C          C       0.99710   0.73354   0.40154  -0.15482
C          C       0.28210   0.24625   0.43820  -0.20465
C          C       0.75488   0.03859   0.43504  -0.20478
C          C       0.96414   0.71661   0.45287  -0.20523
C          C       0.38120   0.30443   0.33981  -0.29022
C          C       0.70162   0.08391   0.31088  -0.28885
C          C       0.91615   0.61768   0.31668  -0.28619
C          C       0.37687   0.34738   0.40607  -0.28998
C          C       0.65725   0.03860   0.38263  -0.28475
C          C       0.95991   0.61675   0.41016  -0.28240
C          C       0.31572   0.13922   0.62622  -0.14561
C          C       0.85606   0.17527   0.61039  -0.14278
C          C       0.82545   0.68176   0.60515  -0.14209
C          C       0.34641   0.15233   0.66538  -0.15196
C          C       0.84304   0.19267   0.65182  -0.14955
C          C       0.80789   0.65131   0.64361  -0.14882
C          C       0.36328   0.18097   0.74236   0.01439
C          C       0.81566   0.18093   0.73503   0.01792
C          C       0.81943   0.63547   0.72838   0.01523
C          C       0.34729   0.19591   0.78130   0.11665
C          C       0.80193   0.15029   0.77716   0.11518
C          C       0.85011   0.65250   0.77646   0.11753
C          C       0.31624   0.18229   0.73867   0.10160
C          C       0.81595   0.13322   0.73774   0.10154
C          C       0.86742   0.68363   0.73911   0.10054
C          C       0.29936   0.15398   0.66054  -0.03065
C          C       0.84289   0.14453   0.65136  -0.03131
C          C       0.85625   0.69933   0.65099  -0.02893
C          C       0.33241   0.22561   0.87765   0.45627
C          C       0.77385   0.10617   0.87723   0.45652
C          C       0.89433   0.66861   0.88365   0.45422
C          C       0.26730   0.14082   0.61522   0.09857
C          C       0.85617   0.12611   0.60142   0.09653
C          C       0.87469   0.73098   0.60266   0.09615
C          C       0.39553   0.19414   0.78249   0.08858
C          C       0.80284   0.20004   0.77850   0.08951
C          C       0.80023   0.60344   0.76781   0.09048
C          C       0.25564   0.15898   0.56049  -0.16523
C          C       0.83823   0.09461   0.57176  -0.16925
C          C       0.90596   0.74452   0.57546  -0.16638
C          C       0.22577   0.14626   0.50786  -0.13462
C          C       0.85084   0.07755   0.51808  -0.13826
C          C       0.92260   0.77400   0.52054  -0.13935
C          C       0.20606   0.11479   0.51042   0.04897
C          C       0.88207   0.09115   0.49388   0.05318
C          C       0.90881   0.79135   0.49210   0.05402
C          C       0.21720   0.09662   0.57140  -0.09524
C          C       0.90019   0.12250   0.52510  -0.09072
C          C       0.87772   0.77816   0.52175  -0.09267
C          C       0.24709   0.10934   0.62185  -0.13032
C          C       0.88756   0.13947   0.57720  -0.13059
C          C       0.86120   0.74881   0.57577  -0.13094
C          C       0.40672   0.17632   0.84694  -0.14520
C          C       0.82158   0.22953   0.84133  -0.14222
C          C       0.76996   0.59197   0.81147  -0.14070
C          C       0.43721   0.18905   0.88740  -0.13243
C          C       0.80955   0.24755   0.88677  -0.13229
C          C       0.75201   0.56186   0.85398  -0.13442
C          C       0.45744   0.21992   0.86293   0.05046
C          C       0.77843   0.23661   0.86900   0.05122
C          C       0.76361   0.54213   0.85259   0.05331
C          C       0.44638   0.23762   0.79481  -0.10315
C          C       0.75976   0.20742   0.80142  -0.10270
C          C       0.79363   0.55338   0.80463  -0.10225
C          C       0.41597   0.22503   0.75635  -0.11154
C          C       0.77170   0.18933   0.75865  -0.11209
C          C       0.81165   0.58344   0.76433  -0.11241
C          C       0.17585   0.10398   0.96774   0.06494
C          C       0.89378   0.07041   0.94900   0.06465
C          C       0.92932   0.82299   0.94513   0.06584
C          C       0.48928   0.23312   0.90738   0.06979
C          C       0.76599   0.25541   0.92061   0.07079
C          C       0.74471   0.51076   0.89965   0.06943
C          C       0.31588   0.26359   0.88448   0.11075
C          C       0.73657   0.05142   0.87677   0.11058
C          C       0.94871   0.68467   0.89150   0.11042
C          C       0.33283   0.29772   0.92986   0.04269
C          C       0.70266   0.03358   0.91735   0.04049
C          C       0.96501   0.66707   0.93367   0.04372
C          C       0.12777   0.06319   0.90912   0.19477
C          C       0.93451   0.06307   0.89518   0.19494
C          C       0.93579   0.87069   0.89294   0.19469
C          C       0.53850   0.27364   0.93630   0.19849
C          C       0.72642   0.26473   0.95925   0.19790
C          C       0.73597   0.46212   0.94457   0.19701
C          C       0.11033   0.07392   0.98515  -0.18238
C          C       0.92388   0.03482   0.96845  -0.17941
C          C       0.96437   0.88879   0.96800  -0.17955
C          C       0.07922   0.05912   0.95921  -0.12896
C          C       0.93913   0.01894   0.94862  -0.12735
C          C       0.98021   0.91993   0.94749  -0.12617
C          C       0.06444   0.03335   0.85661   0.05160
C          C       0.96545   0.03050   0.85597   0.05319
C          C       0.96821   0.93421   0.85302   0.05289
C          C       0.08211   0.02326   0.77755  -0.12492
C          C       0.97566   0.05850   0.78107  -0.12524
C          C       0.93984   0.91599   0.77684  -0.12624
C          C       0.11311   0.03762   0.80475  -0.15552
C          C       0.96071   0.07461   0.80134  -0.15343
C          C       0.92379   0.88489   0.79740  -0.15348
C          C       0.55479   0.26123   0.86430  -0.18388
C          C       0.73905   0.29374   0.89288  -0.18223
C          C       0.70712   0.44504   0.87098  -0.18314
C          C       0.58596   0.27521   0.88677  -0.12605
C          C       0.72527   0.31101   0.91471  -0.12651
C          C       0.68999   0.41395   0.89259  -0.12846
C          C       0.60188   0.30176   0.98264   0.05145
C          C       0.69872   0.30023   0.00448   0.05217
C          C       0.70062   0.39878   0.99003   0.05197
C          C       0.58669   0.31331   0.54630  -0.12525
C          C       0.68960   0.27271   0.56324  -0.12611
C          C       0.73002   0.41693   0.55835  -0.12559
C          C       0.55573   0.29964   0.52126  -0.15752
C          C       0.70365   0.25572   0.54315  -0.15675
C          C       0.74674   0.44790   0.53434  -0.15700
C          C       0.03117   0.01618   0.84310   0.07963
C          C       0.98264   0.01450   0.84500   0.07910
C          C       0.98417   0.96747   0.84280   0.07949
C          C       0.63513   0.31779  -0.00217   0.08040
C          C       0.68258   0.31734   0.01131   0.07932
C          C       0.68332   0.36552   0.00323   0.08127
C          C       0.01431   0.03087   0.84392  -0.18674
C          C       0.96792   0.98281   0.84363  -0.18628
C          C       0.01577   0.98445   0.84118  -0.18640
C          C       0.65091   0.30202   0.00508  -0.18680
C          C       0.69840   0.34905   0.01279  -0.18696
C          C       0.65168   0.34951  -0.00345  -0.18996
C          C       0.31339   0.31228   0.89083  -0.20178
C          C       0.68864  -0.00049   0.87397  -0.20308
C          C       0.99895   0.68569   0.89380  -0.20484
C          C       0.28048   0.29477   0.94360  -0.15260
C          C       0.70663   0.98466   0.92912  -0.15462
C          C       0.01551   0.71873   0.95307  -0.15137
C          C       0.26464   0.26190   0.88299  -0.15512
C          C       0.73926   0.00230   0.87315  -0.15464
C          C      -0.00057   0.73528   0.89506  -0.15662
C          C       0.28264   0.24712   0.93720  -0.20444
C          C       0.75364   0.03524   0.93067  -0.20425
C          C       0.96657   0.71820   0.94737  -0.20383
C          C       0.38215   0.30297   0.83774  -0.28869
C          C       0.69673   0.07681   0.81512  -0.28455
C          C       0.91969   0.61869   0.82582  -0.28655
C          C       0.37887   0.34667   0.90270  -0.28760
C          C       0.65391   0.03107   0.89706  -0.28384
C          C       0.96399   0.61876   0.91120  -0.28104
N          N       0.35776   0.22437   0.37107  -0.46288
N          N       0.77948   0.13721   0.35610  -0.46059
N          N       0.86470   0.64301   0.36508  -0.45778
N          N       0.30864   0.20348   0.29932  -0.37292
N          N       0.79975   0.10803   0.29536  -0.37545
N          N       0.89405   0.69223   0.30326  -0.37422
N          N       0.33104   0.24907   0.46522  -0.43950
N          N       0.75492   0.08643   0.45628  -0.43564
N          N       0.91571   0.66944   0.47046  -0.43645
N          N       0.36024   0.31600   0.34344  -0.09314
N          N       0.68798   0.05104   0.32128  -0.09946
N          N       0.94894   0.63575   0.33975  -0.10375
N          N       0.15676   0.07279   0.44278  -0.28475
N          N       0.92388   0.08450   0.42501  -0.28610
N          N       0.91468   0.83918   0.41584  -0.28560
N          N       0.50915   0.26081   0.40129  -0.27958
N          N       0.74226   0.24812   0.42484  -0.28018
N          N       0.75361   0.49318   0.40984  -0.27956
N          N       0.35684   0.22323   0.86573  -0.46023
N          N       0.77527   0.13250   0.86067  -0.46199
N          N       0.86779   0.64372   0.86410  -0.45821
N          N       0.30744   0.20216   0.79877  -0.37183
N          N       0.79734   0.10485   0.80283  -0.37614
N          N       0.89587   0.69337   0.80803  -0.37566
N          N       0.33069   0.24823   0.96222  -0.44041
N          N       0.75159   0.08180   0.95860  -0.43738
N          N       0.91867   0.67074   0.96944  -0.43976
N          N       0.36177   0.31526   0.84102  -0.10184
N          N       0.68422   0.04414   0.82824  -0.10640
N          N       0.95253   0.63752   0.84304  -0.10453
N          N       0.15857   0.07526   0.94148  -0.28006
N          N       0.92213   0.08162   0.92039  -0.28363
N          N       0.91757   0.83977   0.91918  -0.28252
N          N       0.50765   0.26195   0.90723  -0.28022
N          N       0.73730   0.24512   0.92525  -0.28362
N          N       0.75537   0.49277   0.91467  -0.28250

