data_crystal

_audit_creation_method 'AiiDA-DDEC plugin'

_cell_length_a        52.41860
_cell_length_b        52.31015
_cell_length_c        10.88053

_cell_angle_alpha     89.13831
_cell_angle_beta     91.83402
_cell_angle_gamma     120.41131

_symmetry_space_group_name_Hall 'P 1'
_symmetry_space_group_name_H-M  'P 1'

loop_
_symmetry_equiv_pos_as_xyz
 'x,y,z'

loop_
_atom_site_label
_atom_site_type_symbol
_atom_site_fract_x
_atom_site_fract_y
_atom_site_fract_z
_atom_site_charge
H          H       0.30206   0.12400   0.15879   0.11361
H          H       0.87880   0.18301   0.14405   0.11280
H          H       0.82293   0.69628   0.15312   0.11403
H          H       0.35619   0.14915   0.18368   0.10905
H          H       0.85223   0.21002   0.16968   0.10957
H          H       0.79482   0.64226   0.16999   0.10956
H          H       0.26579   0.16515   0.40010   0.11698
H          H       0.83292   0.10221   0.38693   0.11774
H          H       0.89839   0.73079   0.40603   0.11675
H          H       0.21117   0.13590   0.37891   0.11109
H          H       0.86137   0.07668   0.36043   0.11387
H          H       0.92262   0.78514   0.37858   0.11285
H          H       0.20588   0.09566   0.21546   0.10769
H          H       0.90907   0.11660   0.21183   0.10889
H          H       0.88686   0.79328   0.20989   0.10885
H          H       0.26075   0.12363   0.24156   0.10933
H          H       0.88091   0.14286   0.22906   0.11033
H          H       0.86132   0.73854   0.23144   0.10764
H          H       0.39606   0.18605   0.29983   0.11369
H          H       0.81453   0.20782   0.29352   0.11312
H          H       0.79421   0.60561   0.28656   0.11517
H          H       0.45030   0.20979   0.32498   0.10972
H          H       0.79013   0.23711   0.32441   0.10804
H          H       0.76313   0.55161   0.31681   0.11252
H          H       0.46129   0.25077   0.47239   0.10508
H          H       0.74809   0.20945   0.47341   0.10564
H          H       0.78701   0.53513   0.47339   0.10509
H          H       0.40662   0.22663   0.44477   0.10544
H          H       0.77358   0.18095   0.44160   0.10433
H          H       0.81676   0.58961   0.44192   0.10094
H          H       0.16347   0.09727   0.44827   0.07227
H          H       0.90148   0.06806   0.42337   0.07230
H          H       0.93017   0.83298   0.43700   0.07173
H          H       0.49912   0.24462   0.26141   0.07032
H          H       0.75525   0.25183   0.26252   0.07324
H          H       0.74709   0.50114   0.25715   0.07150
H          H       0.12136   0.09467   0.48672   0.11258
H          H       0.90643   0.02946   0.45350   0.11340
H          H       0.96890   0.87665   0.46862   0.11301
H          H       0.06672   0.06595   0.47777   0.11331
H          H       0.93444   0.00320   0.45272   0.11345
H          H       0.99514   0.93126   0.46298   0.11333
H          H       0.06677   0.00525   0.21355   0.11072
H          H       0.99626   0.06351   0.22671   0.11286
H          H       0.94062   0.93343   0.23532   0.11418
H          H       0.12193   0.03445   0.22703   0.11913
H          H       0.96832   0.09032   0.23744   0.11965
H          H       0.91556   0.87835   0.24820   0.12185
H          H       0.54069   0.24674   0.25268   0.11596
H          H       0.75352   0.29222   0.25465   0.11486
H          H       0.70703   0.45898   0.24259   0.11447
H          H       0.59511   0.27237   0.27435   0.11366
H          H       0.72765   0.32024   0.27819   0.11375
H          H       0.67853   0.40458   0.26526   0.11169
H          H       0.60281   0.33157   0.48518   0.11248
H          H       0.66479   0.26584   0.48768   0.11277
H          H       0.72862   0.39495   0.48260   0.11417
H          H       0.54786   0.30641   0.46518   0.12098
H          H       0.69044   0.23705   0.47039   0.11822
H          H       0.75665   0.45001   0.46249   0.12007
H          H       0.02628   0.05597   0.08014   0.10803
H          H       0.94426   0.97269   0.08805   0.11013
H          H       0.02678   0.97403   0.07121   0.10817
H          H       0.63661   0.27719   0.13623   0.11009
H          H       0.72169   0.35716   0.13822   0.10944
H          H       0.64219   0.36213   0.12887   0.10932
H          H       0.40476   0.26552   0.49217   0.09467
H          H       0.73563   0.14113   0.49241   0.09694
H          H       0.85819   0.59489   0.45853   0.09931
H          H       0.39323   0.26981   0.12405   0.09227
H          H       0.73272   0.12192   0.11070   0.09233
H          H       0.86752   0.59691   0.01519   0.09262
H          H       0.32873   0.26905   0.43340   0.28804
H          H       0.73085   0.06119   0.42785   0.28712
H          H       0.93854   0.67093   0.43224   0.28807
H          H       0.34944   0.31986   0.49985   0.12771
H          H       0.68086   0.03124   0.50234   0.12844
H          H       0.95402   0.63114   0.33008   0.12086
H          H       0.36812   0.32654   0.35902   0.12049
H          H       0.67482   0.04244   0.35439   0.12074
H          H       0.96739   0.61534   0.44142   0.12969
H          H       0.38305   0.35353   0.47761   0.12963
H          H       0.64747   0.03097   0.46710   0.13012
H          H       0.96831   0.64883   0.47461   0.12693
H          H       0.42203   0.33313   0.37050   0.12095
H          H       0.66918   0.09024   0.34380   0.12100
H          H       0.92057   0.56689   0.44205   0.13080
H          H       0.43394   0.32292   0.50772   0.12732
H          H       0.67876   0.11314   0.47620   0.12780
H          H       0.90179   0.57764   0.33326   0.12173
H          H       0.43217   0.35583   0.50315   0.13177
H          H       0.64562   0.07825   0.47135   0.13232
H          H       0.88648   0.56385   0.47948   0.12907
H          H       0.39161   0.33652   0.18956   0.12946
H          H       0.66773   0.05116   0.17165   0.12664
H          H       0.93457   0.60956   0.17175   0.12318
H          H       0.39871   0.30703   0.20575   0.11108
H          H       0.69726   0.08787   0.19199   0.10800
H          H       0.89981   0.60723   0.15433   0.11589
H          H       0.36171   0.29918   0.18020   0.12579
H          H       0.70490   0.05907   0.16123   0.12882
H          H       0.93286   0.64234   0.14405   0.12995
H          H       0.37799   0.28302   0.37351   0.04677
H          H       0.71845   0.09839   0.36623   0.04387
H          H       0.90221   0.62293   0.35237   0.05157
H          H       0.30242   0.12328   0.65463   0.11306
H          H       0.87945   0.18081   0.63338   0.11269
H          H       0.82044   0.69531   0.64975   0.11433
H          H       0.35645   0.14849   0.67699   0.10926
H          H       0.85494   0.20967   0.66052   0.10966
H          H       0.79144   0.64118   0.66724   0.11035
H          H       0.26789   0.16416   0.88735   0.11593
H          H       0.83861   0.10831   0.87584   0.11758
H          H       0.89806   0.73278   0.89149   0.11597
H          H       0.21327   0.13545   0.85982   0.11299
H          H       0.86749   0.08296   0.85744   0.10922
H          H       0.92253   0.78720   0.86816   0.11257
H          H       0.20690   0.09181   0.72104   0.10977
H          H       0.91060   0.11565   0.69670   0.10862
H          H       0.88343   0.79201   0.70838   0.11005
H          H       0.26174   0.12019   0.74047   0.11057
H          H       0.88301   0.14232   0.72085   0.10690
H          H       0.85801   0.73739   0.73363   0.10880
H          H       0.39581   0.18506   0.79861   0.11717
H          H       0.81948   0.21152   0.79076   0.11523
H          H       0.79022   0.60360   0.79280   0.11454
H          H       0.45012   0.20869   0.82479   0.11294
H          H       0.79532   0.24115   0.81946   0.11252
H          H       0.75924   0.54942   0.82016   0.11378
H          H       0.46107   0.25035   0.96897   0.10518
H          H       0.74886   0.21208   0.96419   0.10552
H          H       0.78878   0.53610   0.96707   0.10508
H          H       0.40629   0.22555   0.94178   0.10355
H          H       0.77414   0.18341   0.93168   0.10377
H          H       0.81844   0.59018   0.93318   0.09449
H          H       0.16501   0.09817   0.92675   0.07149
H          H       0.90485   0.07261   0.93040   0.07385
H          H       0.93023   0.83456   0.93161   0.07047
H          H       0.49910   0.24315   0.76165   0.07088
H          H       0.75951   0.25477   0.76040   0.07313
H          H       0.74390   0.49969   0.76036   0.07120
H          H       0.12200   0.09529   0.95695   0.11537
H          H       0.90555   0.03124   0.96562   0.11292
H          H       0.96646   0.87786   0.94669   0.11529
H          H       0.06731   0.06642   0.94358   0.11175
H          H       0.93307   0.00453   0.95543   0.11328
H          H       0.99145   0.93230   0.93479   0.11301
H          H       0.06721   0.00406   0.74148   0.11321
H          H       0.99369   0.06137   0.73626   0.11310
H          H       0.93643   0.93137   0.73054   0.11217
H          H       0.12228   0.03307   0.75041   0.12254
H          H       0.96544   0.08799   0.73624   0.12051
H          H       0.91028   0.87621   0.73745   0.12043
H          H       0.54024   0.24267   0.73761   0.11409
H          H       0.75521   0.29324   0.74374   0.11530
H          H       0.70536   0.45646   0.74866   0.11680
H          H       0.59478   0.26760   0.75720   0.11268
H          H       0.72984   0.32179   0.76061   0.11349
H          H       0.67750   0.40204   0.76760   0.11416
H          H       0.60290   0.32953   0.97187   0.11077
H          H       0.66782   0.27133   0.97830   0.11375
H          H       0.72874   0.39547   0.98178   0.11380
H          H       0.54789   0.30365   0.94979   0.12032
H          H       0.69420   0.24332   0.95337   0.11855
H          H       0.75747   0.45053   0.95837   0.11815
H          H       0.02564   0.05449   0.60262   0.10737
H          H       0.94391   0.97097   0.58824   0.10943
H          H       0.02706   0.97300   0.60086   0.10758
H          H       0.63646   0.27561   0.62987   0.10816
H          H       0.72145   0.35578   0.63218   0.10834
H          H       0.64185   0.36041   0.63301   0.10880
H          H       0.40516   0.26521   0.97948   0.09377
H          H       0.73543   0.14009   0.96824   0.09404
H          H       0.85910   0.60618   0.86736   0.09240
H          H       0.39236   0.27050   0.63512   0.09230
H          H       0.73170   0.12143   0.63183   0.09224
H          H       0.87583   0.60247   0.60630   0.08751
H          H       0.32954   0.26857   0.91589   0.28957
H          H       0.73476   0.06336   0.89284   0.28884
H          H       0.93403   0.67322   0.85666   0.29299
H          H       0.34929   0.31912   0.98511   0.12764
H          H       0.65068   0.02713   0.97484   0.13021
H          H       0.96735   0.65411   0.96719   0.12570
H          H       0.37308   0.33043   0.85770   0.11978
H          H       0.68554   0.03003   0.95950   0.12719
H          H       0.95856   0.62763   0.84845   0.12019
H          H       0.38315   0.35327   0.98969   0.12906
H          H       0.67072   0.04260   0.83948   0.11843
H          H       0.96822   0.62116  -0.00158   0.12681
H          H       0.42495   0.33407   0.88824   0.12122
H          H       0.64810   0.07461   0.02376   0.13135
H          H       0.91007   0.57707   0.85617   0.12047
H          H       0.43343   0.32192   0.02909   0.12726
H          H       0.66381   0.08654   0.87721   0.12265
H          H       0.88602   0.56841   0.98113   0.12496
H          H       0.43195   0.35501   0.02461   0.13112
H          H       0.68039   0.10972   0.00803   0.12639
H          H       0.92107   0.57167   0.00521   0.13021
H          H       0.39588   0.34109   0.68060   0.13005
H          H       0.65924   0.05737   0.66430   0.13117
H          H       0.94362   0.59918   0.64442   0.13260
H          H       0.40453   0.31275   0.70103   0.11276
H          H       0.68759   0.09483   0.68091   0.11669
H          H       0.90792   0.59337   0.66924   0.11294
H          H       0.36677   0.30349   0.68947   0.12337
H          H       0.69671   0.06629   0.68428   0.12094
H          H       0.93883   0.63017   0.66443   0.12044
H          H       0.38002   0.28500   0.86637   0.04498
H          H       0.71601   0.09636   0.85075   0.04311
H          H       0.90734   0.62259   0.81151   0.05144
C          C       0.31531   0.14709   0.13153  -0.15166
C          C       0.85554   0.17242   0.11622  -0.15127
C          C       0.83290   0.68366   0.12317  -0.15046
C          C       0.34603   0.16131   0.14546  -0.15004
C          C       0.84050   0.18776   0.13106  -0.15135
C          C       0.81689   0.65289   0.13300  -0.15158
C          C       0.36476   0.19082   0.10714  -0.02666
C          C       0.81055   0.17587   0.09379  -0.02761
C          C       0.82748   0.63455   0.09189  -0.02852
C          C       0.35030   0.20523   0.05764   0.03373
C          C       0.79682   0.14736   0.04226   0.03585
C          C       0.85565   0.64964   0.03987   0.03492
C          C       0.31876   0.19105   0.04474   0.11233
C          C       0.81188   0.13119   0.02754   0.11224
C          C       0.87271   0.68139   0.03256   0.11183
C          C       0.30070   0.16123   0.07953   0.00577
C          C       0.84192   0.14385   0.06381   0.00383
C          C       0.86125   0.69900   0.07268   0.00573
C          C       0.33501   0.23601   0.99543   0.40414
C          C       0.76695   0.10129   0.97628   0.40581
C          C       0.90077   0.66634   0.96899   0.41150
C          C       0.26824   0.14556   0.06528   0.08185
C          C       0.85815   0.12788   0.05251   0.08228
C          C       0.87742   0.73154   0.06181   0.08029
C          C       0.39709   0.20479   0.12055   0.08512
C          C       0.79562   0.19290   0.11127   0.08606
C          C       0.80937   0.60224   0.10846   0.08603
C          C       0.25304   0.14901   0.47009  -0.12360
C          C       0.85002   0.10533   0.45427  -0.12224
C          C       0.89483   0.74405   0.47163  -0.12417
C          C       0.22226   0.13260   0.45871  -0.12888
C          C       0.86596   0.09091   0.43998  -0.13169
C          C       0.90858   0.77466   0.45686  -0.13172
C          C       0.20585   0.11363   0.03625   0.04913
C          C       0.89023   0.09801   0.03373   0.04744
C          C       0.90636   0.79399   0.03781   0.05150
C          C       0.21971   0.11053   0.14397  -0.11335
C          C       0.89390   0.11526   0.13828  -0.11352
C          C       0.88888   0.77975   0.14023  -0.11562
C          C       0.25033   0.12602   0.15755  -0.14319
C          C       0.87831   0.13007   0.14684  -0.14215
C          C       0.87451   0.74914   0.15124  -0.14090
C          C       0.41016   0.19999   0.22684  -0.14218
C          C       0.80033   0.20889   0.22088  -0.14246
C          C       0.79285   0.59049   0.21558  -0.14513
C          C       0.44076   0.21352   0.24109  -0.12701
C          C       0.78647   0.22523   0.23834  -0.12784
C          C       0.77549   0.56001   0.23288  -0.13145
C          C       0.45953   0.23216   0.14907   0.04320
C          C       0.76752   0.22642   0.14667   0.04320
C          C       0.77399   0.53993   0.14425   0.04348
C          C       0.44656   0.23640   0.04105  -0.11710
C          C       0.76312   0.21084   0.03604  -0.11688
C          C       0.79017   0.55153   0.03651  -0.11607
C          C       0.41601   0.22292   0.02734  -0.15040
C          C       0.77688   0.19445   0.01908  -0.15169
C          C       0.80724   0.58191   0.01926  -0.15022
C          C       0.17369   0.09705   0.01901   0.07241
C          C       0.90628   0.08215   0.02172   0.07029
C          C       0.92129   0.82609   0.02308   0.07020
C          C       0.49153   0.24654   0.16800   0.06880
C          C       0.75303   0.24346   0.16817   0.06615
C          C       0.75634   0.50807   0.16505   0.06889
C          C       0.12580   0.06627   0.09096   0.19890
C          C       0.93572   0.06343   0.09986   0.19754
C          C       0.93858   0.87414   0.09711   0.19539
C          C       0.54035   0.27410   0.10143   0.19689
C          C       0.72488   0.26490   0.10435   0.19645
C          C       0.73506   0.45864   0.10085   0.19727
C          C       0.11001   0.07535   0.01196  -0.17705
C          C       0.92562   0.03866   0.02180  -0.17597
C          C       0.96050   0.88981   0.00971  -0.17526
C          C       0.07919   0.05929   0.00570  -0.12896
C          C       0.94095   0.02339   0.01716  -0.13129
C          C       0.97485   0.92058   0.00378  -0.13241
C          C       0.06307   0.03362   0.07698   0.05545
C          C       0.96695   0.03232   0.08884   0.05618
C          C       0.96778   0.93687   0.08373   0.05665
C          C       0.07893   0.02459   0.15541  -0.13311
C          C       0.97674   0.05683   0.16769  -0.13594
C          C       0.94589   0.92119   0.17079  -0.13616
C          C       0.10967   0.04085   0.16377  -0.16154
C          C       0.96119   0.07181   0.17456  -0.16007
C          C       0.93189   0.89044   0.17871  -0.16095
C          C       0.55410   0.26512   0.19185  -0.17605
C          C       0.73449   0.28717   0.19499  -0.17616
C          C       0.71220   0.44527   0.18623  -0.17597
C          C       0.58484   0.27934   0.20325  -0.13182
C          C       0.72012   0.30324   0.20742  -0.13137
C          C       0.69586   0.41456   0.19799  -0.12695
C          C       0.60296   0.30307   0.12570   0.05657
C          C       0.69559   0.29750   0.13109   0.05578
C          C       0.70179   0.39610   0.12609   0.05459
C          C       0.58920   0.31185   0.03506  -0.13410
C          C       0.68613   0.27534   0.04060  -0.13530
C          C       0.72449   0.40949   0.04052  -0.13504
C          C       0.55852   0.29738   0.02195  -0.16139
C          C       0.70080   0.25970   0.02611  -0.15965
C          C       0.74051   0.44014   0.02688  -0.16059
C          C       0.03034   0.01696   0.07487   0.07722
C          C       0.98335   0.01621   0.08304   0.07650
C          C       0.98368   0.96964   0.07935   0.07757
C          C       0.63563   0.31794   0.13471   0.07775
C          C       0.68084   0.31518   0.13878   0.07806
C          C       0.68399   0.36343   0.13526   0.07763
C          C       0.01438   0.03185   0.07890  -0.19355
C          C       0.96827   0.98508   0.08355  -0.19415
C          C       0.01467   0.98584   0.07414  -0.19363
C          C       0.64985   0.30128   0.13781  -0.19391
C          C       0.69766   0.34626   0.13874  -0.19449
C          C       0.65297   0.34899   0.13363  -0.19306
C          C       0.38586   0.26410   0.53839  -0.09848
C          C       0.73739   0.12297   0.53463  -0.09995
C          C       0.87609   0.61204   0.51541  -0.09877
C          C       0.37426   0.28306   0.47256   0.07449
C          C       0.71805   0.09319   0.46496   0.07630
C          C       0.90653   0.62488   0.45258   0.07730
C          C       0.38894   0.31577   0.51474   0.24072
C          C       0.68524   0.07507   0.50135   0.23897
C          C       0.92437   0.60936   0.48485   0.23892
C          C       0.37130   0.32961   0.45887  -0.43529
C          C       0.67142   0.04312   0.45284  -0.43584
C          C       0.95523   0.62724   0.42875  -0.43719
C          C       0.42106   0.33275   0.47113  -0.43739
C          C       0.66886   0.09010   0.44464  -0.43554
C          C       0.90727   0.57766   0.43159  -0.43542
C          C       0.38486   0.31421   0.15633  -0.44652
C          C       0.68981   0.06741   0.13971  -0.44421
C          C       0.92254   0.61870   0.12132  -0.44055
C          C       0.31543   0.14659   0.63028  -0.15198
C          C       0.85581   0.17040   0.61338  -0.15098
C          C       0.83059   0.68239   0.62652  -0.15131
C          C       0.34617   0.16090   0.64309  -0.14917
C          C       0.84191   0.18683   0.62901  -0.14935
C          C       0.81409   0.65161   0.63663  -0.14733
C          C       0.36471   0.19076   0.60867  -0.02754
C          C       0.81162   0.17535   0.59982  -0.02650
C          C       0.82511   0.63310   0.60319  -0.03071
C          C       0.34995   0.20530   0.56439   0.03594
C          C       0.79631   0.14602   0.55650   0.03556
C          C       0.85418   0.64789   0.56056   0.03422
C          C       0.31832   0.19105   0.55276   0.11280
C          C       0.81012   0.12864   0.54240   0.11285
C          C       0.87171   0.67962   0.55308   0.11171
C          C       0.30045   0.16086   0.58352   0.00586
C          C       0.84060   0.14100   0.56923   0.00591
C          C       0.85970   0.69744   0.58340   0.00590
C          C       0.33446   0.23637   0.50912   0.40459
C          C       0.76441   0.09949   0.50207   0.40316
C          C       0.90050   0.66387   0.50777   0.40222
C          C       0.26788   0.14461   0.57106   0.08133
C          C       0.85616   0.12444   0.55471   0.08114
C          C       0.87592   0.72995   0.57034   0.08138
C          C       0.39709   0.20479   0.62160   0.08545
C          C       0.79759   0.19327   0.61572   0.08557
C          C       0.80664   0.60077   0.61700   0.08435
C          C       0.25436   0.14913   0.95896  -0.12321
C          C       0.85421   0.11036   0.94879  -0.12432
C          C       0.89536   0.74589   0.96073  -0.12325
C          C       0.22367   0.13308   0.94407  -0.12963
C          C       0.87033   0.09601   0.93913  -0.12750
C          C       0.90923   0.77654   0.94824  -0.13171
C          C       0.20524   0.11192   0.54928   0.04883
C          C       0.88787   0.09439   0.52746   0.05068
C          C       0.90472   0.79232   0.54206   0.04992
C          C       0.22006   0.10763   0.65065  -0.11265
C          C       0.89379   0.11321   0.62890  -0.11504
C          C       0.88617   0.77831   0.64197  -0.11319
C          C       0.25072   0.12346   0.66052  -0.14086
C          C       0.87844   0.12816   0.64128  -0.13979
C          C       0.87190   0.74775   0.65496  -0.13885
C          C       0.41003   0.19934   0.72669  -0.14366
C          C       0.80407   0.21123   0.72054  -0.14069
C          C       0.78932   0.58872   0.72176  -0.14470
C          C       0.44060   0.21267   0.74137  -0.12782
C          C       0.79033   0.22775   0.73688  -0.12728
C          C       0.77193   0.55820   0.73725  -0.12643
C          C       0.45949   0.23169   0.65062   0.04284
C          C       0.76961   0.22699   0.64914   0.04217
C          C       0.77117   0.53847   0.64877   0.04486
C          C       0.44667   0.23653   0.54354  -0.11678
C          C       0.76361   0.20961   0.54263  -0.11778
C          C       0.78787   0.55039   0.54244  -0.11747
C          C       0.41615   0.22337   0.52961  -0.15040
C          C       0.77747   0.19330   0.52636  -0.14966
C          C       0.80502   0.58084   0.52683  -0.15140
C          C       0.17296   0.09562   0.53777   0.07085
C          C       0.90388   0.07853   0.51336   0.07049
C          C       0.92010   0.82445   0.52682   0.07111
C          C       0.49147   0.24573   0.66926   0.07044
C          C       0.75495   0.24387   0.67003   0.06670
C          C       0.75372   0.50659   0.66921   0.06866
C          C       0.12574   0.06516   0.61641   0.19754
C          C       0.93465   0.06127   0.59323   0.19767
C          C       0.93713   0.87249   0.60185   0.19681
C          C       0.54020   0.27339   0.60186   0.19754
C          C       0.72418   0.26253   0.60698   0.19767
C          C       0.73373   0.45719   0.60574   0.19761
C          C       0.10965   0.07460   0.54127  -0.17659
C          C       0.92575   0.03684   0.51442  -0.17260
C          C       0.96151   0.88848   0.52537  -0.17478
C          C       0.07884   0.05863   0.53747  -0.13103
C          C       0.94133   0.02177   0.51512  -0.13138
C          C       0.97649   0.91933   0.52314  -0.13105
C          C       0.06291   0.03264   0.60732   0.05697
C          C       0.96632   0.03054   0.59336   0.05740
C          C       0.96756   0.93539   0.59546   0.05574
C          C       0.07904   0.02353   0.68359  -0.13323
C          C       0.97501   0.05482   0.67236  -0.13569
C          C       0.94317   0.91935   0.67140  -0.13253
C          C       0.10983   0.03970   0.68937  -0.16188
C          C       0.95926   0.06965   0.67340  -0.15987
C          C       0.92854   0.88856   0.67596  -0.15936
C          C       0.55383   0.26232   0.68312  -0.17472
C          C       0.73526   0.28689   0.68814  -0.17554
C          C       0.71091   0.44324   0.69105  -0.17577
C          C       0.58456   0.27616   0.69308  -0.12973
C          C       0.72110   0.30322   0.69680  -0.12977
C          C       0.69499   0.41248   0.70114  -0.12999
C          C       0.60275   0.30155   0.62351   0.05408
C          C       0.69532   0.29586   0.62600   0.05551
C          C       0.70133   0.39455   0.62778   0.05628
C          C       0.58907   0.31246   0.54221  -0.13298
C          C       0.68424   0.27146   0.54561  -0.13455
C          C       0.72410   0.40852   0.54288  -0.13675
C          C       0.55841   0.29841   0.53020  -0.16348
C          C       0.69858   0.25537   0.53512  -0.15833
C          C       0.73971   0.43922   0.53089  -0.16085
C          C       0.03018   0.01571   0.60183   0.07592
C          C       0.98289   0.01457   0.59427   0.07644
C          C       0.98363   0.96819   0.59462   0.07627
C          C       0.63538   0.31627   0.63185   0.07753
C          C       0.68066   0.31363   0.63239   0.07830
C          C       0.68369   0.36184   0.63406   0.07776
C          C       0.01397   0.03039   0.59980  -0.19182
C          C       0.96799   0.98347   0.59168  -0.19239
C          C       0.01469   0.98458   0.59895  -0.19248
C          C       0.64966   0.29969   0.63203  -0.19340
C          C       0.69742   0.34474   0.63366  -0.19404
C          C       0.65268   0.34733   0.63413  -0.19220
C          C       0.38640   0.26373   0.02734  -0.09867
C          C       0.73805   0.12268   0.01337  -0.09908
C          C       0.87438   0.61475   0.94756  -0.09925
C          C       0.37489   0.28316   0.96450   0.07516
C          C       0.71897   0.09206   0.94794   0.07752
C          C       0.90716   0.62742   0.90901   0.07541
C          C       0.38846   0.31490   0.01708   0.23924
C          C       0.68790   0.07198   0.00109   0.23813
C          C       0.92370   0.61434   0.98316   0.23425
C          C       0.37251   0.33017   0.95826  -0.43513
C          C       0.67297   0.04124   0.93939  -0.43581
C          C       0.95635   0.63032   0.94664  -0.43465
C          C       0.42157   0.33238   0.98778  -0.43518
C          C       0.66910   0.08664   0.97575  -0.43454
C          C       0.90925   0.58103   0.95440  -0.43572
C          C       0.38901   0.31824   0.65478  -0.44608
C          C       0.68217   0.07346   0.64101  -0.44464
C          C       0.92883   0.60794   0.62396  -0.44602
N          N       0.36017   0.23426   0.01848  -0.11008
N          N       0.76781   0.12751   0.00207  -0.11079
N          N       0.87503   0.64070  -0.00109  -0.11116
N          N       0.30987   0.21105   0.00570  -0.45077
N          N       0.79241   0.10225   0.98616  -0.45091
N          N       0.90094   0.69108   0.98816  -0.45406
N          N       0.15667   0.08144   0.10693  -0.30043
N          N       0.92150   0.07983   0.11260  -0.30128
N          N       0.92339   0.84324   0.11215  -0.30256
N          N       0.50964   0.26096   0.08106  -0.30671
N          N       0.73817   0.24795   0.08197  -0.30364
N          N       0.75247   0.48924   0.08025  -0.30593
N          N       0.34194   0.26571   0.49402  -0.41439
N          N       0.73487   0.07763   0.48787  -0.41651
N          N       0.92215   0.65670   0.48809  -0.41757
N          N       0.35965   0.23458   0.52983  -0.11131
N          N       0.76669   0.12654   0.52378  -0.11210
N          N       0.87361   0.63850   0.52574  -0.10677
N          N       0.30935   0.21127   0.51782  -0.45243
N          N       0.78937   0.09941   0.50850  -0.45226
N          N       0.90074   0.68887   0.52015  -0.45624
N          N       0.15672   0.07995   0.62766  -0.30001
N          N       0.92013   0.07741   0.60285  -0.30094
N          N       0.92133   0.84156   0.61431  -0.30109
N          N       0.50954   0.26071   0.58308  -0.30441
N          N       0.73737   0.24538   0.58770  -0.30713
N          N       0.75069   0.48785   0.58551  -0.30597
N          N       0.34240   0.26520   0.97833  -0.41144
N          N       0.73800   0.07863   0.95751  -0.41244
N          N       0.92134   0.65995   0.92539  -0.40912

