data_crystal

_audit_creation_method 'AiiDA-DDEC plugin'

_cell_length_a        50.92782
_cell_length_b        50.94962
_cell_length_c        10.15466

_cell_angle_alpha     94.71454
_cell_angle_beta     84.79310
_cell_angle_gamma     120.93813

_symmetry_space_group_name_Hall 'P 1'
_symmetry_space_group_name_H-M  'P 1'

loop_
_symmetry_equiv_pos_as_xyz
 'x,y,z'

loop_
_atom_site_label
_atom_site_type_symbol
_atom_site_fract_x
_atom_site_fract_y
_atom_site_fract_z
_atom_site_charge
H          H       0.30787   0.12729   0.46301   0.10967
H          H       0.88245   0.18670   0.54221   0.10829
H          H       0.82874   0.68523   0.40009   0.11473
H          H       0.35369   0.13436   0.08349   0.10840
H          H       0.85610   0.21394   0.01446   0.10616
H          H       0.77440   0.63507   0.00460   0.10582
H          H       0.38272   0.24439   0.14821   0.29992
H          H       0.76250   0.12734   0.24382   0.29878
H          H       0.85684   0.61971   0.15465   0.30273
H          H       0.27257   0.18995   0.40590   0.10117
H          H       0.81614   0.08964   0.40118   0.10597
H          H       0.90524   0.75005   0.63646   0.10438
H          H       0.22045   0.16364   0.32099   0.10060
H          H       0.84080   0.05999   0.31729   0.09981
H          H       0.92800   0.80363   0.57192   0.09647
H          H       0.20458   0.07762   0.44270   0.11349
H          H       0.92332   0.12581   0.50537   0.11616
H          H       0.89624   0.77210   0.17919   0.10699
H          H       0.25717   0.10388   0.52451   0.10974
H          H       0.89854   0.15540   0.59144   0.10622
H          H       0.87220   0.71826   0.24521   0.10392
H          H       0.38034   0.16403   0.30748   0.10935
H          H       0.84343   0.23340   0.20699   0.11311
H          H       0.75823   0.60477   0.20892   0.11284
H          H       0.43175   0.18886   0.39994   0.10403
H          H       0.81931   0.26447   0.27413   0.10667
H          H       0.72967   0.55249   0.29621   0.10481
H          H       0.46893   0.25436   0.09423   0.11053
H          H       0.73114   0.18801   0.17923   0.11424
H          H       0.79559   0.53227   0.09574   0.11404
H          H       0.41741   0.22967   0.00196   0.10035
H          H       0.75532   0.15708   0.10618   0.10125
H          H       0.82332   0.58400   0.00189   0.09901
H          H       0.17107   0.11837   0.28819   0.06443
H          H       0.88235   0.05038   0.30906   0.06195
H          H       0.93579   0.83968   0.42909   0.06408
H          H       0.48573   0.22811   0.39629   0.06443
H          H       0.77601   0.27154   0.29010   0.06852
H          H       0.72203   0.50109   0.30652   0.06387
H          H       0.13593   0.08149   0.12878   0.10691
H          H       0.90316   0.02419   0.42390   0.10759
H          H       0.96993   0.86961   0.04557   0.10815
H          H       0.08097   0.05361   0.07960   0.10419
H          H       0.92847   0.99387   0.37253   0.10694
H          H       0.99364   0.92613   0.03942   0.10701
H          H       0.05742   0.00743   0.44569   0.10512
H          H       0.00222   0.06870   0.15899   0.10804
H          H       0.93712   0.92484   0.38309   0.11196
H          H       0.11265   0.03528   0.49441   0.10544
H          H       0.97765   0.09969   0.21777   0.11969
H          H       0.91355   0.86848   0.38917   0.11421
H          H       0.53295   0.23582   0.38492   0.10614
H          H       0.75364   0.29130   0.16273   0.10275
H          H       0.71735   0.46698   0.46166   0.10791
H          H       0.58756   0.26133   0.43004   0.10229
H          H       0.73071   0.32410   0.19556   0.10362
H          H       0.68668   0.41169   0.50781   0.10249
H          H       0.60430   0.34213   0.24641   0.10656
H          H       0.65858   0.25801   0.44981   0.10498
H          H       0.72853   0.39106   0.15982   0.10573
H          H       0.54914   0.31648   0.20374   0.11313
H          H       0.68111   0.22452   0.41243   0.11783
H          H       0.75899   0.44660   0.11238   0.11099
H          H       0.02843   0.05238   0.25976   0.10759
H          H       0.94306   0.96679   0.22371   0.10522
H          H       0.02797   0.96769   0.21943   0.11219
H          H       0.63293   0.27530   0.33569   0.10484
H          H       0.72266   0.35585   0.34055   0.10944
H          H       0.64311   0.36483   0.36480   0.10784
H          H       0.36521   0.28220   0.12422   0.26814
H          H       0.73105   0.06962   0.25180   0.26421
H          H       0.91431   0.64202   0.14679   0.26510
H          H       0.29686   0.25632   0.56620   0.07523
H          H       0.74290   0.04708   0.51214   0.07212
H          H       0.96160   0.71009   0.57182   0.07521
H          H       0.32400   0.31600   0.06304   0.06364
H          H       0.69093   0.00310   0.06016   0.06834
H          H       0.99023   0.68205   0.04937   0.06525
H          H       0.34054   0.30568   0.55410   0.08404
H          H       0.69499   0.03958   0.46780   0.08018
H          H       0.96266   0.66437   0.53978   0.08367
H          H       0.31688   0.31151   0.29595   0.11117
H          H       0.69531   0.97952   0.23151   0.11152
H          H       0.98745   0.68872   0.28473   0.10228
H          H       0.33146   0.28920   0.35288   0.11650
H          H       0.71490   0.00652   0.36324   0.10709
H          H       0.94979   0.67746   0.35772   0.12175
H          H       0.29416   0.28174   0.40410   0.12318
H          H       0.72291   0.97724   0.31486   0.13604
H          H       0.98181   0.71394   0.39483   0.12683
H          H       0.25814   0.24801   0.08183   0.13405
H          H       0.76297   0.00726   0.98838   0.13216
H          H       0.99212   0.74743   0.06673   0.13091
H          H       0.26029   0.28437   0.57504   0.11144
H          H       0.71023   0.97920   0.54369   0.11243
H          H       0.02664   0.74300   0.54184   0.11244
H          H       0.25232   0.25953   0.24609   0.13066
H          H       0.75009   0.97740   0.10004   0.13042
H          H       0.00594   0.75479   0.22737   0.13276
H          H       0.30496   0.23187   0.29467   0.12889
H          H       0.77305   0.04511   0.33227   0.12038
H          H       0.92224   0.70472   0.29915   0.12600
H          H       0.27700   0.21520   0.17475   0.14206
H          H       0.79231   0.04707   0.17615   0.14191
H          H       0.93893   0.73273   0.17769   0.13250
H          H       0.26834   0.22755   0.33384   0.12051
H          H       0.77957   0.01486   0.27546   0.12125
H          H       0.95508   0.74048   0.33464   0.12824
H          H       0.35911   0.32688   0.21641   0.33274
H          H       0.68198   0.01233   0.27923   0.33263
H          H       0.96262   0.64810   0.21298   0.33321
H          H       0.30299   0.11343   0.99535   0.10781
H          H       0.87855   0.18475   0.90627   0.10859
H          H       0.80622   0.68725   0.93140   0.10781
H          H       0.35779   0.15041   0.55971   0.10503
H          H       0.85933   0.21692   0.63263   0.10921
H          H       0.79878   0.63441   0.49572   0.10760
H          H       0.35990   0.24344   0.78751   0.29730
H          H       0.75130   0.13071   0.72845   0.30051
H          H       0.87967   0.64140   0.77919   0.29675
H          H       0.28262   0.17934   0.82569   0.10900
H          H       0.81558   0.08437   0.83739   0.10887
H          H       0.91178   0.72762   0.91375   0.10626
H          H       0.23081   0.15360   0.74034   0.10549
H          H       0.84140   0.05637   0.74365   0.10118
H          H       0.94221   0.78286   0.87154   0.10104
H          H       0.20283   0.07644   0.97862   0.11425
H          H       0.92816   0.13178   0.86142   0.11239
H          H       0.86004   0.78758   0.90379   0.11364
H          H       0.25523   0.10181   0.06130   0.10826
H          H       0.90225   0.15981   0.95675   0.10744
H          H       0.82962   0.73282   0.95344   0.10342
H          H       0.38303   0.16243   0.75197   0.11550
H          H       0.82623   0.21956   0.87150   0.10409
H          H       0.77676   0.61412   0.71621   0.11380
H          H       0.43673   0.18474   0.81222   0.10936
H          H       0.79851   0.24688   0.94640   0.09857
H          H       0.74322   0.56144   0.79622   0.10439
H          H       0.45714   0.27378   0.71049   0.11351
H          H       0.73901   0.20386   0.62417   0.11579
H          H       0.81647   0.54303   0.71054   0.11240
H          H       0.40367   0.25136   0.64386   0.10532
H          H       0.76623   0.17559   0.55149   0.10396
H          H       0.85043   0.59598   0.63195   0.10453
H          H       0.17765   0.11177   0.74289   0.07087
H          H       0.88618   0.05001   0.73332   0.06202
H          H       0.94680   0.83155   0.85847   0.06034
H          H       0.48909   0.22669   0.81526   0.07018
H          H       0.75887   0.25898   0.92103   0.06504
H          H       0.73347   0.51152   0.83112   0.06483
H          H       0.12793   0.09738   0.86437   0.10815
H          H       0.91416   0.03877   0.88945   0.11259
H          H       0.96378   0.86587   0.69561   0.10420
H          H       0.07274   0.07203   0.82703   0.10640
H          H       0.93962   0.00827   0.88019   0.10808
H          H       0.99524   0.92129   0.65651   0.10811
H          H       0.07257   0.98973   0.68964   0.10490
H          H       0.00276   0.06356   0.56965   0.10954
H          H       0.93057   0.93667   0.90122   0.11005
H          H       0.12732   0.01458   0.73728   0.11944
H          H       0.97752   0.09454   0.58132   0.12171
H          H       0.89833   0.88075   0.93624   0.12068
H          H       0.53556   0.25040   0.67581   0.10587
H          H       0.75622   0.30032   0.87455   0.10658
H          H       0.70353   0.46541   0.73363   0.10538
H          H       0.59131   0.27230   0.69181   0.10388
H          H       0.73162   0.33141   0.90139   0.10226
H          H       0.66865   0.41001   0.75296   0.10530
H          H       0.59415   0.34152   0.97229   0.10823
H          H       0.65130   0.25777   0.72380   0.10344
H          H       0.74203   0.40200   0.88601   0.10325
H          H       0.53829   0.31995   0.95335   0.11693
H          H       0.67584   0.22620   0.70076   0.11608
H          H       0.77732   0.45751   0.86033   0.11796
H          H       0.03399   0.05436   0.70963   0.10695
H          H       0.94571   0.97237   0.74174   0.10513
H          H       0.02701   0.96848   0.77516   0.10385
H          H       0.62862   0.27903   0.83879   0.10805
H          H       0.71883   0.35839   0.79998   0.10319
H          H       0.63951   0.36827   0.84169   0.10370
H          H       0.33779   0.27850   0.77308   0.26106
H          H       0.71573   0.07257   0.69464   0.26365
H          H       0.93850   0.66939   0.78347   0.25737
H          H       0.30824   0.25883  -0.00235   0.06966
H          H       0.74863   0.04399   0.02592   0.07811
H          H       0.94908   0.69720   0.00400   0.06874
H          H       0.31036   0.31333   0.59239   0.06717
H          H       0.68415   0.00329   0.52727   0.06422
H          H       0.00173   0.69274   0.55764   0.06622
H          H       0.34820   0.30895   0.94741   0.07759
H          H       0.70105   0.04135   0.03592   0.08397
H          H       0.95972   0.65754   0.94626   0.08242
H          H       0.27955   0.30742   0.80159   0.11148
H          H       0.68370   0.98844   0.74658   0.11141
H          H       0.02714   0.72165   0.75750   0.11022
H          H       0.28738   0.28697   0.91209   0.11012
H          H       0.70372   0.02221   0.85064   0.10750
H          H      -0.00036   0.71649   0.89097   0.11144
H          H       0.24932   0.27706   0.89094   0.13758
H          H       0.71072   0.99160   0.85303   0.12565
H          H       0.03073   0.75342   0.85549   0.13651
H          H       0.24653   0.24474   0.53917   0.12802
H          H       0.75034   0.00376   0.51129   0.13283
H          H       0.00307   0.75905   0.53181   0.13300
H          H       0.27499   0.28756   0.12900   0.11130
H          H       0.72309   0.98033   0.01443   0.11111
H          H       0.01222   0.73003   0.11413   0.10927
H          H       0.22712   0.25639   0.66193   0.13323
H          H       0.73645   0.97957   0.64761   0.13116
H          H       0.03424   0.77660   0.63662   0.13109
H          H       0.26558   0.22764   0.85826   0.12759
H          H       0.76381   0.05494   0.81827   0.12406
H          H       0.96520   0.74078   0.87383   0.12601
H          H       0.25162   0.21241   0.70041   0.13473
H          H       0.78156   0.04944   0.66966   0.13826
H          H       0.96485   0.75464   0.72070   0.13753
H          H       0.22984   0.22252   0.81886   0.12330
H          H       0.76707   0.02178   0.79398   0.11792
H          H       0.99732   0.77590   0.81921   0.12302
H          H       0.32631   0.32486   0.80443   0.33296
H          H       0.66911   0.01871   0.72257   0.33669
H          H       0.99525   0.67623   0.76843   0.33122
C          C       0.31683   0.14940   0.51587  -0.15085
C          C       0.85817   0.17478   0.57260  -0.15168
C          C       0.83962   0.67818   0.46526  -0.15340
C          C       0.34551   0.14973   0.06725  -0.15451
C          C       0.84414   0.18932   0.02577  -0.15102
C          C       0.79915   0.64643   0.00967  -0.15264
C          C       0.36480   0.18135   0.09389  -0.02211
C          C       0.81561   0.17522   0.09844  -0.03490
C          C       0.81176   0.63010   0.05560  -0.02807
C          C       0.35274   0.19947   0.06781   0.08763
C          C       0.80151   0.14334   0.10540   0.09118
C          C       0.84378   0.64629   0.05485   0.08485
C          C       0.32332   0.18808   0.01979   0.10918
C          C       0.81344   0.12575   0.03874   0.11138
C          C       0.86306   0.67672   0.01280   0.10238
C          C       0.29974   0.16421   0.52054   0.00619
C          C       0.84108   0.14263   0.55296  -0.00105
C          C       0.87042   0.69884   0.49302   0.00207
C          C       0.34116   0.23621   0.06894   0.45732
C          C       0.77193   0.09355   0.14717   0.46129
C          C       0.89296   0.66319   0.08471   0.46421
C          C       0.26902   0.14889   0.46816   0.08416
C          C       0.85563   0.12503   0.50059   0.08853
C          C       0.88675   0.73035   0.44622   0.08823
C          C       0.39520   0.19510   0.14847   0.08120
C          C       0.80120   0.19282   0.15194   0.08807
C          C       0.79357   0.59873   0.10299   0.08442
C          C       0.25789   0.16537   0.41200  -0.12962
C          C       0.83957   0.09766   0.42382  -0.12558
C          C       0.90349   0.75483   0.53633  -0.12644
C          C       0.22853   0.15050   0.36537  -0.13510
C          C       0.85349   0.08101   0.37714  -0.13260
C          C       0.91634   0.78486   0.49962  -0.13220
C          C       0.20896   0.11870   0.37568   0.05168
C          C       0.88393   0.09111   0.40452   0.04600
C          C       0.91389   0.79155   0.37105   0.04811
C          C       0.21996   0.10211   0.43257  -0.11168
C          C       0.90007   0.11845   0.48124  -0.10693
C          C       0.89800   0.76711   0.27914  -0.10566
C          C       0.24939   0.11690   0.47727  -0.13626
C          C       0.88615   0.13498   0.52814  -0.13735
C          C       0.88442   0.73698   0.31694  -0.12994
C          C       0.39981   0.18355   0.25986  -0.13971
C          C       0.81889   0.22340   0.19979  -0.13830
C          C       0.76640   0.58892   0.18337  -0.14419
C          C       0.42864   0.19766   0.31203  -0.12761
C          C       0.80532   0.24078   0.23816  -0.12571
C          C       0.75050   0.55960   0.23305  -0.13253
C          C       0.45379   0.22352   0.25362   0.04787
C          C       0.77355   0.22819   0.23145   0.04547
C          C       0.76131   0.53916   0.20486   0.05084
C          C       0.44927   0.23484   0.14091  -0.11154
C          C       0.75562   0.19745   0.18638  -0.10556
C          C       0.78802   0.54859   0.12132  -0.10548
C          C       0.42049   0.22107   0.09043  -0.15573
C          C       0.76922   0.18023   0.14756  -0.15395
C          C       0.80360   0.57762   0.07115  -0.15297
C          C       0.17754   0.10375   0.33377   0.06449
C          C       0.89784   0.07307   0.35455   0.07039
C          C       0.92728   0.82369   0.34238   0.06982
C          C       0.48403   0.23814   0.30767   0.06811
C          C       0.75998   0.24717   0.26615   0.06270
C          C       0.74466   0.50837   0.25612   0.06781
C          C       0.12789   0.06095   0.31782   0.19678
C          C       0.93850   0.06398   0.32272   0.20352
C          C       0.94104   0.86537   0.22064   0.20330
C          C       0.53698   0.27476   0.29318   0.20352
C          C       0.71932   0.25599   0.28873   0.20680
C          C       0.73910   0.46030   0.27895   0.20242
C          C       0.11870   0.06600   0.20022  -0.17958
C          C       0.92446   0.03360   0.36281  -0.18626
C          C       0.96301   0.88189   0.11955  -0.16559
C          C       0.08772   0.05013   0.17232  -0.13367
C          C       0.93880   0.01658   0.33363  -0.12584
C          C       0.97637   0.91353   0.11710  -0.12881
C          C       0.06526   0.02887   0.26004   0.05996
C          C       0.96728   0.02884   0.26151   0.05070
C          C       0.96746   0.92961   0.21215   0.05093
C          C       0.07466   0.02356   0.37613  -0.13392
C          C       0.98063   0.05890   0.21803  -0.12793
C          C       0.94419   0.91279   0.30825  -0.13136
C          C       0.10544   0.03909   0.40394  -0.15856
C          C       0.96691   0.07634   0.24976  -0.16862
C          C       0.93123   0.88120   0.31310  -0.18557
C          C       0.54833   0.25942   0.35758  -0.17604
C          C       0.73329   0.28443   0.22858  -0.18647
C          C       0.71904   0.45029   0.39291  -0.17844
C          C       0.57930   0.27377   0.38163  -0.12563
C          C       0.72032   0.30282   0.24721  -0.12248
C          C       0.70196   0.41920   0.41927  -0.12778
C          C       0.60030   0.30388   0.34294   0.06339
C          C       0.69316   0.29375   0.32678   0.05708
C          C       0.70471   0.39733   0.33491   0.05937
C          C       0.58863   0.31924   0.28125  -0.12953
C          C       0.67933   0.26527   0.38628  -0.12665
C          C       0.72620   0.40773   0.22611  -0.13264
C          C       0.55781   0.30500   0.25629  -0.15283
C          C       0.69183   0.24650   0.36631  -0.16079
C          C       0.74322   0.43862   0.19909  -0.15725
C          C       0.03200   0.01205   0.23642   0.08439
C          C       0.98370   0.01174   0.24094   0.07669
C          C       0.98363   0.96350   0.21793   0.08130
C          C       0.63368   0.31817   0.35516   0.07397
C          C       0.67925   0.31317   0.34243   0.07808
C          C       0.68496   0.36391   0.35126   0.08052
C          C       0.01587   0.02763   0.24335  -0.19397
C          C       0.96790   0.97956   0.22788  -0.19786
C          C       0.01572   0.98003   0.22221  -0.19144
C          C       0.64728   0.30004   0.34755  -0.18995
C          C       0.69784   0.34521   0.34409  -0.18979
C          C       0.65296   0.35022   0.36028  -0.18492
C          C       0.32116   0.27225   0.08388   0.04732
C          C       0.73631   0.03817   0.12345   0.04323
C          C       0.94917   0.68550   0.09024   0.04515
C          C       0.33918   0.30643   0.05058  -0.00179
C          C       0.70232   0.02650   0.10417  -0.00029
C          C       0.96521   0.66710   0.04734  -0.00759
C          C       0.29735   0.26486   0.20471   0.23357
C          C       0.74296   0.01441   0.17858   0.24019
C          C       0.96490   0.71027   0.20264   0.23466
C          C       0.31108   0.28839   0.31996  -0.44509
C          C       0.71744   0.99338   0.27748  -0.44598
C          C       0.97118   0.69648   0.31569  -0.44061
C          C       0.26926   0.26514   0.16211  -0.43489
C          C       0.74488   0.99379   0.06307  -0.43576
C          C       0.99552   0.73696   0.14880  -0.43661
C          C       0.28628   0.23295   0.25428  -0.43222
C          C       0.77381   0.03138   0.24460  -0.43481
C          C       0.94410   0.72278   0.25620  -0.43180
C          C       0.31663   0.13793   0.01759  -0.15310
C          C       0.85686   0.17265   0.96369  -0.15076
C          C       0.81755   0.67636   0.96792  -0.15369
C          C       0.34512   0.16239   0.57205  -0.14632
C          C       0.84512   0.19211   0.62441  -0.15015
C          C       0.82240   0.64959   0.52190  -0.15460
C          C       0.35862   0.19120   0.64066  -0.02967
C          C       0.81362   0.17839   0.66083  -0.02551
C          C       0.83472   0.63926   0.61021  -0.03270
C          C       0.34138   0.20568   0.64679   0.09441
C          C       0.79691   0.14650   0.64428   0.08594
C          C       0.86571   0.65941   0.63384   0.09076
C          C       0.31327   0.19352   0.58495   0.10522
C          C       0.80946   0.12850   0.59012   0.10709
C          C       0.88361   0.68842   0.57633   0.10509
C          C       0.30437   0.15629   0.99283   0.00085
C          C       0.84205   0.14049   0.96641   0.00804
C          C       0.84997   0.69300   0.96929  -0.00414
C          C       0.32153   0.23599   0.68536   0.46417
C          C       0.76186   0.09662   0.64470   0.45928
C          C       0.91433   0.68348   0.69190   0.46247
C          C       0.27314   0.14217   0.94663   0.08745
C          C       0.85696   0.12406   0.90350   0.08712
C          C       0.86823   0.72549   0.93542   0.08463
C          C       0.38936   0.20506   0.69149   0.08800
C          C       0.79814   0.19557   0.70691   0.08525
C          C       0.81589   0.60883   0.66682   0.09095
C          C       0.26539   0.15677   0.85861  -0.12680
C          C       0.84016   0.09473   0.84257  -0.11861
C          C       0.90035   0.74057   0.91132  -0.12402
C          C       0.23606   0.14231   0.81160  -0.12606
C          C       0.85477   0.07909   0.79027  -0.12840
C          C       0.91738   0.77173   0.88791  -0.12380
C          C       0.21332   0.11306   0.85318   0.04292
C          C       0.88661   0.09227   0.79695   0.05115
C          C       0.90318   0.78909   0.88422   0.05327
C          C       0.22073   0.09869   0.94404  -0.11055
C          C       0.90362   0.12196   0.85473  -0.10657
C          C       0.87106   0.77414   0.90567  -0.10352
C          C       0.25007   0.11293   0.98916  -0.14077
C          C       0.88904   0.13750   0.90692  -0.13954
C          C       0.85417   0.74325   0.93187  -0.13538
C          C       0.39935   0.18669   0.74003  -0.14038
C          C       0.80728   0.21626   0.81695  -0.13794
C          C       0.78543   0.59853   0.71428  -0.13770
C          C       0.42948   0.19928   0.77436  -0.12624
C          C       0.79159   0.23153   0.85882  -0.12347
C          C       0.76671   0.56905   0.75943  -0.12582
C          C       0.45070   0.23082   0.76392   0.04429
C          C       0.76679   0.22714   0.78993   0.04641
C          C       0.77755   0.54857   0.75676   0.04868
C          C       0.44061   0.24946   0.71942  -0.10912
C          C       0.75781   0.20667   0.67845  -0.11177
C          C       0.80825   0.55901   0.71276  -0.10466
C          C       0.41059   0.23683   0.68417  -0.15197
C          C       0.77301   0.19100   0.63885  -0.15551
C          C       0.82709   0.58863   0.66996  -0.15381
C          C       0.18251   0.09822   0.80514   0.07253
C          C       0.90144   0.07471   0.75428   0.07251
C          C       0.92180   0.82176   0.86128   0.07262
C          C       0.48242   0.24342   0.79683   0.06690
C          C       0.75136   0.24428   0.83027   0.07344
C          C       0.75665   0.51701   0.79365   0.07190
C          C       0.13169   0.05791   0.80095   0.20897
C          C       0.94364   0.06829   0.73347   0.20234
C          C       0.92908   0.86953   0.82164   0.20353
C          C       0.53285   0.28310   0.81701   0.20623
C          C       0.71732   0.26056   0.78842   0.20655
C          C       0.74297   0.46567   0.79846   0.20641
C          C       0.11588   0.07399   0.82327  -0.18310
C          C       0.93283   0.04341   0.81614  -0.18894
C          C       0.95673   0.88141   0.74278  -0.18789
C          C       0.08475   0.05961   0.80168  -0.12284
C          C       0.94730   0.02643   0.81120  -0.13086
C          C       0.97445   0.91265   0.72085  -0.12716
C          C       0.06822   0.02892   0.75432   0.05239
C          C       0.97284   0.03339   0.72336   0.04828
C          C       0.96538   0.93317   0.77682   0.05494
C          C       0.08442   0.01324   0.72945  -0.12168
C          C       0.98344   0.05816   0.64039  -0.12649
C          C       0.93760   0.92110   0.85439  -0.12772
C          C       0.11525   0.02711   0.75449  -0.16173
C          C       0.96935   0.07554   0.64603  -0.16242
C          C       0.91958   0.88991   0.87499  -0.15529
C          C       0.54819   0.26962   0.74460  -0.18307
C          C       0.73291   0.29061   0.84459  -0.17531
C          C       0.71186   0.45165   0.76993  -0.17860
C          C       0.57956   0.28207   0.75339  -0.12479
C          C       0.71914   0.30831   0.85758  -0.12336
C          C       0.69220   0.42024   0.78067  -0.12456
C          C       0.59683   0.30824   0.83468   0.05519
C          C       0.68946   0.29707   0.81497   0.06018
C          C       0.70240   0.40132   0.82095   0.05770
C          C       0.58135   0.32153   0.90719  -0.13015
C          C       0.67394   0.26691   0.76045  -0.12840
C          C       0.73340   0.41565   0.85142  -0.12490
C          C       0.55008   0.30949   0.89756  -0.16212
C          C       0.68757   0.24914   0.74650  -0.15784
C          C       0.75334   0.44688   0.83851  -0.15671
C          C       0.03477   0.01324   0.74013   0.07455
C          C       0.98820   0.01548   0.72636   0.08298
C          C       0.98432   0.96639   0.75591   0.07769
C          C       0.63046   0.32213   0.83573   0.07950
C          C       0.67557   0.31650   0.82238   0.07651
C          C       0.68190   0.36773   0.82664   0.07399
C          C       0.02027   0.02979   0.72230  -0.18868
C          C       0.97055   0.98374   0.74223  -0.19172
C          C       0.01640   0.98148   0.75534  -0.19493
C          C       0.64359   0.30365   0.83157  -0.18626
C          C       0.69422   0.34846   0.81711  -0.18863
C          C       0.64983   0.35407   0.83646  -0.18739
C          C       0.30141   0.26968   0.66071   0.04063
C          C       0.72707   0.04142   0.60053   0.04407
C          C       0.96891   0.70427   0.65770   0.03011
C          C       0.32304   0.30372   0.63041   0.00046
C          C       0.69423   0.02777   0.55489  -0.00303
C          C       0.97894   0.68117   0.60973   0.00316
C          C       0.26931   0.26158   0.72613   0.23857
C          C       0.73176   0.01954   0.68137   0.23980
C          C       0.99453   0.73542   0.71573   0.23969
C          C       0.27178   0.28471   0.83871  -0.44425
C          C       0.70586   0.00468   0.78874  -0.44203
C          C       0.01395   0.73130   0.81027  -0.44092
C          C       0.24988   0.26191   0.61906  -0.43674
C          C       0.73207   0.99410   0.58997  -0.43993
C          C       0.01575   0.75443   0.59949  -0.43734
C          C       0.25311   0.22913   0.77929  -0.43402
C          C       0.76289   0.03754   0.74462  -0.43550
C          C       0.97966   0.75277   0.78694  -0.43581
N          N       0.36421   0.23070   0.09424  -0.38284
N          N       0.77466   0.12203   0.17345  -0.37721
N          N       0.86361   0.63796   0.09845  -0.38481
N          N       0.31702   0.21175   0.01903  -0.46761
N          N       0.79429   0.09484   0.06537  -0.45865
N          N       0.89364   0.68636   0.03073  -0.45997
N          N       0.15823   0.07530   0.35530  -0.27841
N          N       0.92674   0.08312   0.36082  -0.28329
N          N       0.92960   0.83378   0.22661  -0.28685
N          N       0.50712   0.26163   0.25270  -0.28764
N          N       0.73072   0.23609   0.26865  -0.28665
N          N       0.75566   0.49040   0.23654  -0.28263
N          N       0.34446   0.26434   0.09890  -0.40983
N          N       0.74805   0.06737   0.20133  -0.39960
N          N       0.91734   0.66262   0.12569  -0.39354
N          N       0.34643   0.23327   0.70952  -0.38061
N          N       0.76622   0.12547   0.67774  -0.37893
N          N       0.88601   0.65684   0.70834  -0.37640
N          N       0.30184   0.21327   0.60879  -0.45997
N          N       0.78688   0.09754   0.58947  -0.46039
N          N       0.91372   0.70266   0.61369  -0.45527
N          N       0.16203   0.07041   0.83346  -0.28920
N          N       0.93090   0.08709   0.74619  -0.27962
N          N       0.90995   0.83846   0.84765  -0.29030
N          N       0.50181   0.27256   0.80347  -0.28594
N          N       0.73018   0.24209   0.76106  -0.28947
N          N       0.76461   0.49655   0.77982  -0.29185
N          N       0.31864   0.26037   0.73513  -0.39657
N          N       0.73449   0.07044   0.67224  -0.40484
N          N       0.94062   0.68818   0.74390  -0.39557
O          O       0.36600   0.32447   0.12623  -0.47178
O          O       0.68563   0.02859   0.22325  -0.48606
O          O       0.95467   0.64069   0.12576  -0.47332
O          O       0.34035   0.32229   0.74083  -0.47814
O          O       0.67429   0.03251   0.65140  -0.47202
O          O       0.97808   0.66305   0.71401  -0.48320

