data_crystal

_audit_creation_method 'AiiDA-DDEC plugin'

_cell_length_a        51.82232
_cell_length_b        51.56263
_cell_length_c         8.46391

_cell_angle_alpha     89.47905
_cell_angle_beta     90.97047
_cell_angle_gamma     119.95672

_symmetry_space_group_name_Hall 'P 1'
_symmetry_space_group_name_H-M  'P 1'

loop_
_symmetry_equiv_pos_as_xyz
 'x,y,z'

loop_
_atom_site_label
_atom_site_type_symbol
_atom_site_fract_x
_atom_site_fract_y
_atom_site_fract_z
_atom_site_charge
H          H       0.04745   0.06468   0.07926   0.10366
H          H       0.96120   0.98557   0.08520   0.10568
H          H       0.03962   0.97766   0.05534   0.10286
H          H       0.28536   0.10640   0.27307   0.10726
H          H       0.87773   0.18418   0.34190   0.11153
H          H       0.81311   0.69000   0.31332   0.10882
H          H       0.62231   0.26643   0.14420   0.10357
H          H       0.70660   0.34799   0.13411   0.10588
H          H       0.62589   0.35138   0.17993   0.10282
H          H       0.33851   0.12831   0.23704   0.10531
H          H       0.85729   0.21585   0.27318   0.10615
H          H       0.78138   0.63720   0.26223   0.10560
H          H       0.38723   0.27491   0.20380   0.27396
H          H       0.75192   0.11241   0.26791   0.25615
H          H       0.88676   0.63922   0.26269   0.26313
H          H       0.40673   0.23864   0.09742   0.29583
H          H       0.78015   0.15975   0.12960   0.28367
H          H       0.83651   0.62167   0.14407   0.28745
H          H       0.32897   0.23257   0.33790   0.10955
H          H       0.78078   0.07605   0.29186   0.11138
H          H       0.92056   0.70419   0.30539   0.11253
H          H       0.25640   0.16688   0.51479   0.10557
H          H       0.82297   0.10389   0.68059   0.10772
H          H       0.90191   0.71937   0.57979   0.10307
H          H       0.35481   0.26550   0.44076   0.08560
H          H       0.75904   0.07615   0.45075   0.08135
H          H       0.91981   0.68046   0.45942   0.07410
H          H       0.20186   0.14314   0.55224   0.09502
H          H       0.84543   0.07157   0.71533   0.09445
H          H       0.93113   0.77446   0.61758   0.09333
H          H       0.33802   0.27273   0.10676   0.05676
H          H       0.73838   0.06249   0.10518   0.05480
H          H       0.94123   0.68243   0.12163   0.05299
H          H       0.22148   0.07965   0.91012   0.11298
H          H       0.94199   0.14296   0.95554   0.11185
H          H       0.86691   0.80483   0.92338   0.11292
H          H       0.32694   0.31245   0.47043   0.07415
H          H       0.67426   0.03249   0.44673   0.07912
H          H       0.97421   0.65558   0.46701   0.07240
H          H       0.24570   0.08089   0.40059   0.10481
H          H       0.88700   0.15312   0.31937   0.10175
H          H       0.82645   0.72736   0.42913   0.10086
H          H       0.33387   0.33658   0.30620   0.08931
H          H       0.66519   0.01527   0.25752   0.07628
H          H       0.98261   0.64570   0.28241   0.09278
H          H       0.38291   0.13915   0.29270   0.10749
H          H       0.84127   0.24922   0.31175   0.11051
H          H       0.74742   0.59172   0.33926   0.10787
H          H       0.29569   0.29606   0.14593   0.08742
H          H       0.68687   0.98764   0.37975   0.10036
H          H       0.00426   0.69646   0.18431   0.08732
H          H       0.43616   0.16349   0.22761   0.09997
H          H       0.81489   0.27487   0.20823   0.10205
H          H       0.71662   0.53822   0.26787   0.10102
H          H       0.27843   0.28653   0.33342   0.10206
H          H       0.71098   0.01841   0.50081   0.08841
H          H       0.01389   0.70420   0.38687   0.09683
H          H       0.44818   0.24862   0.36897   0.10985
H          H       0.73103   0.19343   0.24752   0.10748
H          H       0.79353   0.52755   0.30377   0.11214
H          H       0.28694   0.24458   0.18252   0.11061
H          H       0.71755   0.01105   0.14859   0.08563
H          H       0.98087   0.72628   0.24596   0.11056
H          H       0.39464   0.22503   0.42434   0.09662
H          H       0.75714   0.16728   0.34729   0.09747
H          H       0.82490   0.58139   0.36943   0.10121
H          H       0.29600   0.25108   0.38550   0.10104
H          H       0.74527   0.02228   0.29864   0.11375
H          H       0.97098   0.71007   0.43621   0.09360
H          H       0.15303   0.10104   0.54780   0.05882
H          H       0.88086   0.05597   0.64014   0.06357
H          H       0.93639   0.82374   0.59977   0.05856
H          H       0.44647   0.38426   0.34435   0.13749
H          H       0.69344   0.12201   0.02805   0.15229
H          H       0.88254   0.57684   0.02191   0.15217
H          H       0.48554   0.20683   0.21922   0.06174
H          H       0.76967   0.27616   0.15718   0.06218
H          H       0.71007   0.48946   0.23492   0.05970
H          H       0.45537   0.40459   0.16416   0.13755
H          H       0.65701   0.11717   0.00791   0.13897
H          H       0.88764   0.54551   0.99366   0.13983
H          H       0.10962   0.07463   0.37671   0.10653
H          H       0.89388   0.02550   0.40639   0.10513
H          H       0.95496   0.86665   0.43182   0.10857
H          H       0.42025   0.33673   0.45236   0.13263
H          H       0.63817   0.07897   0.65303   0.14765
H          H       0.92415   0.56154   0.65567   0.14766
H          H       0.05497   0.05208   0.39548   0.10086
H          H       0.91732   0.99389   0.42444   0.10372
H          H       0.98323   0.92178   0.44169   0.10866
H          H       0.43247   0.38190   0.63507   0.13232
H          H       0.63516   0.03695   0.47123   0.14030
H          H       0.96343   0.60172   0.46853   0.14028
H          H       0.08298   0.00283   0.19383   0.10965
H          H       0.01873   0.07869   0.24983   0.10271
H          H       0.94705   0.94390   0.22917   0.10495
H          H       0.41333   0.40131   0.98292   0.14107
H          H       0.61835   0.08937   0.19866   0.13850
H          H       0.91787   0.53418   0.16883   0.13795
H          H       0.13771   0.02558   0.16751   0.11950
H          H       0.99417   0.10972   0.23611   0.11812
H          H       0.91104   0.88965   0.19365   0.12201
H          H       0.37571   0.37784   0.04021   0.13213
H          H       0.62141   0.06525   0.33980   0.13523
H          H       0.94051   0.55907   0.32086   0.13511
H          H       0.53124   0.23191   0.37002   0.10564
H          H       0.74234   0.28994   0.31679   0.11003
H          H       0.69240   0.44488   0.38681   0.10495
H          H       0.38614   0.40384   0.30290   0.13318
H          H       0.67117   0.10652   0.45146   0.14589
H          H       0.89854   0.56475   0.43981   0.14360
H          H       0.58569   0.25700   0.33121   0.10739
H          H       0.71547   0.31820   0.30200   0.10886
H          H       0.65935   0.39042   0.34707   0.10269
H          H       0.41459   0.40547   0.43053   0.13614
H          H       0.69997   0.13018   0.31925   0.14359
H          H       0.87383   0.56994   0.31129   0.14479
H          H       0.58121   0.32275   0.03391   0.10942
H          H       0.65302   0.25439   0.96836   0.10348
H          H       0.71969   0.39057   0.00379   0.10398
H          H       0.42430   0.42769   0.25597   0.13790
H          H       0.66651   0.13178   0.32406   0.14627
H          H       0.87458   0.53587   0.30559   0.14283
H          H       0.52670   0.29820   0.07823   0.11915
H          H       0.67988   0.22562   0.98566   0.11772
H          H       0.75310   0.44508   0.04627   0.12108
H          H       0.01580   0.04612   0.55211   0.10360
H          H       0.93037   0.96550   0.56973   0.10129
H          H       0.01088   0.96087   0.59643   0.10264
H          H       0.31543   0.12532   0.80405   0.10840
H          H       0.88792   0.18236   0.77868   0.10810
H          H       0.81780   0.70801   0.76298   0.10689
H          H       0.64989   0.28622   0.66996   0.10424
H          H       0.73467   0.36764   0.67624   0.10308
H          H       0.65355   0.37104   0.63700   0.10135
H          H       0.36776   0.14737   0.74998   0.10926
H          H       0.86390   0.21187   0.73663   0.10216
H          H       0.78707   0.65433   0.72719   0.10160
H          H       0.35805   0.24578   0.75325   0.26270
H          H       0.72637   0.11065   0.70067   0.27641
H          H       0.88984   0.61634   0.70842   0.27548
H          H       0.37344   0.21231   0.63539   0.28703
H          H       0.76571   0.16619   0.60770   0.29115
H          H       0.83368   0.59811   0.61666   0.28704
H          H       0.29347   0.21759   0.79024   0.11251
H          H       0.76489   0.09112   0.85800   0.10923
H          H       0.90909   0.67538   0.84931   0.10961
H          H       0.28797   0.18345   0.10001   0.10403
H          H       0.83336   0.09410   0.05252   0.10780
H          H       0.90810   0.73671   0.99591   0.10655
H          H       0.31760   0.23885   0.94697   0.07359
H          H       0.73232   0.08703   0.94795   0.08439
H          H       0.91465   0.64809   0.94926   0.08408
H          H       0.23335   0.15910   0.13625   0.09392
H          H       0.86035   0.06619   0.09949   0.09867
H          H       0.94101   0.79163   0.02431   0.09335
H          H       0.31831   0.26148   0.60997   0.05362
H          H       0.72516   0.06063   0.62390   0.05837
H          H       0.93856   0.66523   0.61909   0.05666
H          H       0.19130   0.05724   0.44175   0.11162
H          H       0.91003   0.12214   0.36127   0.11053
H          H       0.85561   0.78198   0.46832   0.11154
H          H       0.34451   0.31945   0.96085   0.07201
H          H       0.68288   0.01686   0.00530   0.07472
H          H       0.98968   0.67296   0.98255   0.07339
H          H       0.27550   0.10351   0.87263   0.10287
H          H       0.91515   0.17087   0.90583   0.10452
H          H       0.83389   0.74987   0.89241   0.10314
H          H       0.35565   0.33829   0.77667   0.09309
H          H       0.65849   0.99717   0.84568   0.09065
H          H       0.00489   0.66508   0.81557   0.09011
H          H       0.41476   0.16085   0.82698   0.11123
H          H       0.85491   0.24594   0.81455   0.10938
H          H       0.75493   0.60879   0.76907   0.10892
H          H       0.30567   0.31180   0.66990   0.08772
H          H       0.69634   0.99164   0.71178   0.08926
H          H       0.00358   0.70460   0.66056   0.08818
H          H       0.46724   0.18542   0.74089   0.10209
H          H       0.83142   0.27608   0.74565   0.10023
H          H       0.72959   0.55596   0.68548   0.09968
H          H       0.29697   0.31235   0.87049   0.09598
H          H       0.70642   0.98910   0.90972   0.09769
H          H       0.01368   0.72192   0.84920   0.10203
H          H       0.47272   0.27125   0.75586   0.11037
H          H       0.74531   0.20143   0.85041   0.11245
H          H       0.80404   0.54800   0.85193   0.11077
H          H       0.27438   0.25813   0.72167   0.10998
H          H       0.74790   0.03286   0.71504   0.11173
H          H       0.96329   0.71628   0.70680   0.11002
H          H       0.41983   0.24681   0.83675   0.09930
H          H       0.76835   0.17039   0.91116   0.09871
H          H       0.83046   0.60127   0.92745   0.09837
H          H       0.28893   0.26225   0.91608   0.09390
H          H       0.74561   0.04092   0.91401   0.10224
H          H       0.96154   0.70598   0.90761   0.09876
H          H       0.18348   0.11816   0.09446   0.06010
H          H       0.90421   0.06220   0.09003   0.06288
H          H       0.94956   0.84073   0.02087   0.05735
H          H       0.42246   0.30590   0.53247   0.15288
H          H       0.61824   0.06842   0.83357   0.13729
H          H       0.93669   0.55344   0.83667   0.13563
H          H       0.51383   0.22880   0.69094   0.06080
H          H       0.78956   0.28309   0.72696   0.06092
H          H       0.72658   0.50796   0.67042   0.06008
H          H       0.45518   0.34155   0.51545   0.14092
H          H       0.59841   0.05852   0.65081   0.13845
H          H       0.94573   0.54328   0.65472   0.13817
H          H       0.14059   0.09833   0.90179   0.10517
H          H       0.92903   0.04696   0.90903   0.10679
H          H       0.96910   0.88403   0.85628   0.10357
H          H       0.43920   0.36484   0.16137   0.14924
H          H       0.66369   0.08797   0.95192   0.13403
H          H       0.91623   0.58194   0.94165   0.13373
H          H       0.08572   0.07464   0.91830   0.10735
H          H       0.95378   0.01656   0.91911   0.10765
H          H       0.00468   0.93825   0.88833   0.10525
H          H       0.39728   0.36170   0.97648   0.13932
H          H       0.61815   0.05645   0.13450   0.13226
H          H       0.94996   0.56878   0.11896   0.13292
H          H       0.05320   0.99113   0.75098   0.09976
H          H       0.99257   0.06493   0.66918   0.10786
H          H       0.91445   0.92161   0.71989   0.10705
H          H       0.46632   0.38305   0.69086   0.13925
H          H       0.59585   0.01487   0.48581   0.14156
H          H       0.98620   0.58493   0.47638   0.14123
H          H       0.10801   0.01340   0.72980   0.11877
H          H       0.97016   0.09717   0.63903   0.12195
H          H       0.88553   0.86615   0.70406   0.11691
H          H       0.44106   0.38026   0.83852   0.13595
H          H       0.61851  -0.00031   0.54676   0.13505
H          H       0.00119   0.62273   0.53548   0.13251
H          H       0.55619   0.25525   0.84497   0.11033
H          H       0.76594   0.30410   0.88193   0.10379
H          H       0.70651   0.46373   0.82010   0.10907
H          H       0.43255   0.33054   0.95404   0.14757
H          H       0.59255   0.98691   0.81028   0.13392
H          H       0.01716   0.61039   0.79580   0.13465
H          H       0.61090   0.27906   0.82602   0.10232
H          H       0.74337   0.33627   0.84901   0.10605
H          H       0.67893   0.40885   0.79419   0.10773
H          H       0.42909   0.30210   0.82259   0.14320
H          H       0.59465   0.01592   0.93191   0.13683
H          H       0.98987   0.58352   0.92420   0.13598
H          H       0.61129   0.34142   0.48380   0.10264
H          H       0.67705   0.27118   0.53422   0.10757
H          H       0.75139   0.41262   0.53470   0.10693
H          H       0.46306   0.33696   0.83212   0.14446
H          H       0.57134   0.00445   0.76002   0.13804
H          H       0.00001   0.57152   0.75138   0.13838
H          H       0.55628   0.31776   0.50516   0.11804
H          H       0.69897   0.23845   0.57298   0.12037
H          H       0.77962   0.46788   0.56688   0.11635
C          C       0.30025   0.12650   0.33938  -0.15361
C          C       0.85617   0.17827   0.38957  -0.14155
C          C       0.81844   0.67458   0.37383  -0.14289
C          C       0.09738   0.05703   0.46264  -0.18133
C          C       0.91544   0.03397   0.46502  -0.19523
C          C       0.94651   0.87859   0.49952  -0.18300
C          C       0.33080   0.13887   0.31983  -0.15161
C          C       0.84480   0.19700   0.35191  -0.14789
C          C       0.80011   0.64420   0.34389  -0.15402
C          C       0.06659   0.04425   0.47328  -0.12705
C          C       0.92877   0.01620   0.47591  -0.12459
C          C       0.96241   0.90975   0.50512  -0.12537
C          C       0.35199   0.16574   0.39532  -0.03325
C          C       0.81637   0.19057   0.40207  -0.04085
C          C       0.80657   0.62249   0.40525  -0.04208
C          C       0.08017   0.03703   0.05823   0.05047
C          C       0.98787   0.04527   0.08634   0.05212
C          C       0.97851   0.94505   0.06118   0.05098
C          C       0.33942   0.17836   0.49188   0.10241
C          C       0.80231   0.16571   0.50181   0.09105
C          C       0.83226   0.63409   0.50084   0.08981
C          C       0.09542   0.02343   0.12675  -0.12188
C          C       0.99912   0.07182   0.17471  -0.13091
C          C       0.95174   0.93089   0.14583  -0.12538
C          C       0.34005   0.18800   0.02400   0.11801
C          C       0.82926   0.14377   0.01875   0.11405
C          C       0.85543   0.68640   0.01029   0.11286
C          C       0.12610   0.03616   0.11360  -0.16451
C          C       0.98547   0.08919   0.16800  -0.16289
C          C       0.93156   0.90055   0.12706  -0.16305
C          C       0.28764   0.13981   0.43323  -0.00052
C          C       0.84090   0.15168   0.48022   0.01492
C          C       0.84435   0.68642   0.47115   0.01379
C          C       0.54207   0.25133   0.29285  -0.18683
C          C       0.72356   0.28286   0.23530  -0.18305
C          C       0.69777   0.43316   0.29862  -0.18286
C          C       0.57273   0.26549   0.27066  -0.12526
C          C       0.70831   0.29864   0.22734  -0.12562
C          C       0.67930   0.40250   0.27657  -0.12846
C          C       0.36336   0.23069   0.14508   0.46014
C          C       0.79083   0.12514   0.16902   0.46541
C          C       0.87329   0.66582   0.16653   0.46888
C          C       0.58755   0.29164   0.17888   0.05060
C          C       0.68250   0.28859   0.13282   0.05235
C          C       0.68685   0.38647   0.17137   0.05136
C          C       0.57037   0.30306   0.10931  -0.12363
C          C       0.67257   0.26215   0.04495  -0.12963
C          C       0.71376   0.40235   0.08891  -0.12430
C          C       0.25526   0.12589   0.45354   0.08953
C          C       0.85351   0.13175   0.50117   0.08462
C          C       0.86219   0.71897   0.49747   0.09030
C          C       0.53982   0.28932   0.13306  -0.16554
C          C       0.68751   0.24601   0.05375  -0.16005
C          C       0.73253   0.43288   0.11174  -0.16014
C          C       0.38413   0.17985   0.36586   0.09655
C          C       0.80132   0.20646   0.34202   0.08939
C          C       0.78845   0.59070   0.36306   0.08600
C          C       0.04744   0.02283   0.06794   0.07961
C          C       0.00270   0.02719   0.08457   0.07918
C          C       0.99820   0.97779   0.07117   0.08142
C          C       0.24212   0.14301   0.49658  -0.12503
C          C       0.84191   0.10780   0.61017  -0.13184
C          C       0.89197   0.73312   0.55232  -0.12664
C          C       0.62025   0.30715   0.16104   0.07855
C          C       0.66625   0.30532   0.13541   0.07975
C          C       0.66838   0.35363   0.15613   0.08236
C          C       0.21158   0.12955   0.51857  -0.13936
C          C       0.85463   0.08965   0.62906  -0.13261
C          C       0.90821   0.76403   0.57414  -0.12582
C          C       0.03377   0.04040   0.07833  -0.19687
C          C       0.98531   0.99595   0.08182  -0.18176
C          C       0.02934   0.99151   0.06458  -0.19366
C          C       0.19287   0.09847   0.50094   0.05285
C          C       0.87968   0.09483   0.54238   0.04371
C          C       0.89544   0.78213   0.54442   0.05363
C          C       0.63510   0.29078   0.14518  -0.19659
C          C       0.68245   0.33664   0.13960  -0.18507
C          C       0.63719   0.33856   0.16574  -0.19120
C          C       0.23623   0.10243   0.95073  -0.10497
C          C       0.91814   0.13246   0.97471  -0.10472
C          C       0.87561   0.78962   0.93858  -0.10398
C          C       0.23622   0.09473   0.43279  -0.13555
C          C       0.87813   0.13605   0.41073  -0.12976
C          C       0.84956   0.73742   0.46803  -0.13672
C          C       0.34688   0.25580   0.32302  -0.08496
C          C       0.76209   0.07932   0.32243  -0.06826
C          C       0.91794   0.68206   0.33070  -0.07009
C          C       0.39690   0.16318   0.30880  -0.13944
C          C       0.81716   0.23683   0.29750  -0.13524
C          C       0.75772   0.57788   0.33025  -0.13269
C          C       0.33447   0.27353   0.23379   0.09483
C          C       0.73406   0.05663   0.23025   0.09048
C          C       0.94340   0.68031   0.24978   0.09505
C          C       0.42699   0.17688   0.27265  -0.12892
C          C       0.80230   0.25124   0.23967  -0.12295
C          C       0.74039   0.54778   0.29120  -0.13153
C          C       0.44594   0.20792   0.29238   0.04246
C          C       0.77106   0.23595   0.22389   0.05091
C          C       0.75299   0.52917   0.28341   0.04883
C          C       0.32737   0.31364   0.34054  -0.05332
C          C       0.68355   0.02803   0.34205  -0.05643
C          C       0.97529   0.65988   0.33915  -0.05574
C          C       0.43359   0.22466   0.35201  -0.11481
C          C       0.75514   0.20535   0.26265  -0.09957
C          C       0.78378   0.54191   0.31208  -0.09619
C          C       0.29783   0.28964   0.26761  -0.17762
C          C       0.70107   0.01206   0.38200  -0.17419
C          C       0.99506   0.69327   0.30334  -0.17982
C          C       0.40356   0.21100   0.38728  -0.15264
C          C       0.76995   0.19102   0.31973  -0.16825
C          C       0.80106   0.57197   0.35051  -0.15840
C          C       0.30134   0.26178   0.26845  -0.20504
C          C       0.72583   0.02385   0.25894  -0.20291
C          C       0.97356   0.70548   0.31257  -0.20311
C          C       0.19162   0.10361   0.04938   0.07057
C          C       0.91839   0.08616   0.06309   0.06940
C          C       0.92585   0.83366   0.00266   0.06798
C          C       0.37718   0.32550   0.23643   0.59465
C          C       0.69974   0.07803   0.21999   0.59886
C          C       0.92482   0.62490   0.22504   0.59986
C          C       0.47730   0.22201   0.25161   0.06856
C          C       0.75562   0.25192   0.17723   0.07081
C          C       0.73404   0.49743   0.24934   0.06824
C          C       0.40843   0.38079   0.21261   0.45293
C          C       0.66162   0.09284   0.20496   0.45713
C          C       0.91217   0.57262   0.19383   0.45832
C          C       0.14298   0.06378   0.03618   0.20565
C          C       0.95957   0.08004   0.07512   0.20238
C          C       0.93792   0.88310   0.02554   0.19954
C          C       0.43923   0.38357   0.22133  -0.49213
C          C       0.66967   0.10589   0.03806  -0.49085
C          C       0.89877   0.56922   0.02760  -0.49347
C          C       0.52504   0.26303   0.22422   0.20436
C          C       0.71339   0.25625   0.14843   0.20083
C          C       0.72465   0.44886   0.21544   0.19873
C          C       0.39799   0.38024   0.04238  -0.49449
C          C       0.62777   0.07474   0.22108  -0.47501
C          C       0.93144   0.55785   0.20171  -0.47663
C          C       0.40827   0.40592   0.30652  -0.47004
C          C       0.67579   0.11675   0.33352  -0.48890
C          C       0.88837   0.56021   0.32116  -0.48679
C          C       0.33057   0.14628   0.86250  -0.14485
C          C       0.86809   0.17665   0.84587  -0.15399
C          C       0.82309   0.69341   0.83260  -0.15481
C          C       0.12794   0.07769   0.96835  -0.18854
C          C       0.94799   0.05327   0.98821  -0.18276
C          C       0.96483   0.89700   0.94190  -0.18369
C          C       0.36075   0.15883   0.83106  -0.15715
C          C       0.85454   0.19387   0.82302  -0.15015
C          C       0.80518   0.66257   0.81370  -0.15071
C          C       0.09708   0.06433   0.97829  -0.12496
C          C       0.96203   0.03631   0.99358  -0.12298
C          C       0.98470   0.92750   0.95955  -0.12967
C          C       0.38213   0.18727   0.88897  -0.04183
C          C       0.82790   0.18753   0.89920  -0.03531
C          C       0.81131   0.64181   0.89231  -0.03535
C          C       0.04997   0.01996   0.57471   0.05383
C          C       0.95688   0.02676   0.54837   0.04647
C          C       0.95132   0.92609   0.58320   0.05304
C          C       0.37064   0.20081   0.98621   0.08687
C          C       0.81629   0.16231  -0.00185   0.10360
C          C       0.83609   0.65501   0.99514   0.10243
C          C       0.06548   0.00921   0.66755  -0.12905
C          C       0.97130   0.05629   0.60723  -0.11929
C          C       0.92331   0.90972   0.65504  -0.12724
C          C       0.30826   0.16681   0.50846   0.11548
C          C       0.81340   0.14625   0.54241   0.11910
C          C       0.85098   0.66498   0.53626   0.12126
C          C       0.09616   0.02161   0.65639  -0.16024
C          C       0.95868   0.07450   0.59229  -0.16751
C          C       0.90702   0.87861   0.64731  -0.15477
C          C       0.31869   0.16004   0.95843   0.01337
C          C       0.85632   0.15117   0.94512  -0.00101
C          C       0.84920   0.70658   0.92805   0.00280
C          C       0.56812   0.27333   0.76110  -0.18325
C          C       0.74691   0.29726   0.80249  -0.18485
C          C       0.71591   0.45268   0.75231  -0.18386
C          C       0.59892   0.28679   0.75030  -0.12640
C          C       0.73411   0.31533   0.78385  -0.12598
C          C       0.70041   0.42167   0.73767  -0.12304
C          C       0.32998   0.20597   0.65720   0.46643
C          C       0.77056   0.12847   0.65463   0.46019
C          C       0.87041   0.64142   0.65636   0.46180
C          C       0.61511   0.31172   0.65203   0.05458
C          C       0.70858   0.30635   0.68824   0.05081
C          C       0.71280   0.40641   0.66106   0.05101
C          C       0.59923   0.32259   0.56348  -0.13015
C          C       0.69630   0.27835   0.61238  -0.12624
C          C       0.74154   0.42371   0.59839  -0.12658
C          C       0.28629   0.14585   0.98167   0.09181
C          C       0.87194   0.13430   0.97258   0.08801
C          C       0.86862   0.73915   0.94197   0.09408
C          C       0.56847   0.30947   0.57481  -0.15874
C          C       0.70860   0.25995   0.63279  -0.16091
C          C       0.75742   0.45471   0.61514  -0.15968
C          C       0.41341   0.20192   0.84125   0.08570
C          C       0.81369   0.20568   0.86810   0.09540
C          C       0.79479   0.60961   0.85630   0.09539
C          C       0.01709   0.00525   0.57707   0.08380
C          C       0.97128   0.00813   0.56167   0.07645
C          C       0.96853   0.95926   0.58303   0.07722
C          C       0.27341   0.16094   0.05619  -0.12947
C          C       0.85695   0.10453   0.02819  -0.12386
C          C       0.89918   0.75161   0.97885  -0.12074
C          C       0.64795   0.32688   0.65079   0.08363
C          C       0.69405   0.32477   0.67185   0.07576
C          C       0.69615   0.37330   0.65518   0.07722
C          C       0.24275   0.14715   0.07659  -0.12802
C          C       0.87221   0.08909   0.05536  -0.13176
C          C       0.91745   0.78232   0.99545  -0.13929
C          C       0.00251   0.02192   0.56303  -0.18372
C          C       0.95458   0.97667   0.57204  -0.19739
C          C      -0.00022   0.97401   0.58752  -0.18671
C          C       0.22361   0.11769   0.02514   0.05165
C          C       0.90300   0.10275   0.03034   0.04963
C          C       0.90600   0.80181   0.97773   0.05108
C          C       0.66284   0.31051   0.66370  -0.18472
C          C       0.71048   0.35626   0.66767  -0.19539
C          C       0.66493   0.35816   0.64521  -0.18707
C          C       0.20577   0.08126   0.45632  -0.10362
C          C       0.89112   0.11840   0.43184  -0.10816
C          C       0.86563   0.76810   0.49070  -0.10329
C          C       0.26673   0.11621   0.92966  -0.13376
C          C       0.90290   0.14780   0.94645  -0.13733
C          C       0.85740   0.75894   0.92059  -0.13222
C          C       0.31594   0.23613   0.81788  -0.06776
C          C       0.74236   0.08730   0.83470  -0.08454
C          C       0.91321   0.65668   0.83247  -0.08020
C          C       0.42727   0.18498   0.81025  -0.13703
C          C       0.83085   0.23584   0.82032  -0.13933
C          C       0.76601   0.59578   0.78710  -0.13999
C          C       0.31945   0.26469   0.73868   0.09338
C          C       0.72342   0.05681   0.75200   0.09384
C          C       0.94303   0.66806   0.74693   0.09187
C          C       0.45673   0.19880   0.76258  -0.12662
C          C       0.81763   0.25287   0.78244  -0.12887
C          C       0.75164   0.56594   0.74044  -0.12464
C          C       0.47357   0.23007   0.74445   0.05080
C          C       0.78659   0.24075   0.79142   0.04393
C          C       0.76517   0.54828   0.76142   0.04355
C          C       0.34076   0.31676   0.83236  -0.05468
C          C       0.68164   0.01319   0.87699  -0.05096
C          C       0.98957   0.67260   0.85249  -0.05067
C          C       0.45973   0.24712   0.77221  -0.09802
C          C       0.76927   0.21079   0.84121  -0.10845
C          C       0.79358   0.56162   0.83382  -0.11481
C          C       0.30787   0.30449   0.78904  -0.17845
C          C       0.70397   0.00387   0.82396  -0.18073
C          C       0.99620   0.70283   0.78324  -0.17908
C          C       0.43030   0.23330   0.81926  -0.15742
C          C       0.78250   0.19376   0.87850  -0.15663
C          C       0.80793   0.59140   0.87981  -0.15686
C          C       0.29465   0.27046   0.79415  -0.20308
C          C       0.73295   0.03384   0.80215  -0.20532
C          C       0.96570   0.70088   0.78796  -0.20294
C          C       0.16110   0.08516   0.53016   0.06999
C          C       0.89320   0.07601   0.56586   0.07040
C          C       0.91262   0.81442   0.56978   0.07080
C          C       0.37505   0.30003   0.72991   0.60126
C          C       0.67293   0.05145   0.73766   0.59530
C          C       0.95030   0.62406   0.73511   0.59399
C          C       0.50490   0.24405   0.70455   0.07113
C          C       0.77359   0.25946   0.75330   0.06583
C          C       0.74972   0.51706   0.71248   0.07091
C          C       0.42748   0.33911   0.70751   0.45719
C          C       0.61833   0.03166   0.71085   0.45447
C          C       0.97153   0.59041   0.70554   0.45606
C          C       0.11265   0.04579   0.55373   0.19710
C          C       0.93021   0.06349   0.52327   0.20532
C          C       0.91844   0.86237   0.57085   0.20117
C          C       0.43130   0.33002   0.54178  -0.49363
C          C       0.61850   0.06139   0.71218  -0.49244
C          C       0.94257   0.56037   0.71365  -0.49142
C          C       0.55238   0.28445   0.67303   0.19875
C          C       0.73438   0.26919   0.72688   0.19942
C          C       0.74486   0.46984   0.69202   0.20418
C          C       0.44266   0.37321   0.71921  -0.47678
C          C       0.61707   0.02021   0.54351  -0.49316
C          C       0.98105   0.60058   0.53607  -0.49568
C          C       0.43870   0.32629   0.83761  -0.49243
C          C       0.59266   0.00824   0.80947  -0.47135
C          C       0.99621   0.58897   0.80010  -0.47264
N          N       0.38504   0.22865   0.06144  -0.38347
N          N       0.79139   0.14943   0.09392  -0.36266
N          N       0.84844   0.64229   0.09466  -0.36737
N          N       0.33635   0.20749   0.12267  -0.45517
N          N       0.81236   0.12039   0.12253  -0.47562
N          N       0.87888   0.69235   0.11478  -0.47625
N          N       0.37093   0.25457   0.24336  -0.38152
N          N       0.77027   0.10994   0.28252  -0.37365
N          N       0.88834   0.65964   0.28003  -0.37934
N          N       0.34886   0.30552   0.28024  -0.20667
N          N       0.70605   0.05655   0.27155  -0.21089
N          N       0.94561   0.65270   0.27831  -0.21016
N          N       0.17370   0.07551   0.02275  -0.28267
N          N       0.94707   0.09856   0.06245  -0.28630
N          N       0.91668   0.85276   0.00822  -0.28266
N          N       0.49454   0.25076   0.25053  -0.29275
N          N       0.72693   0.23874   0.16473  -0.28726
N          N       0.74450   0.47948   0.23591  -0.28224
N          N       0.35281   0.20393   0.58593  -0.36889
N          N       0.77452   0.15346   0.57247  -0.38648
N          N       0.84564   0.61950   0.57617  -0.38647
N          N       0.30317   0.18512   0.60891  -0.48273
N          N       0.79263   0.12285   0.63680  -0.46176
N          N       0.87475   0.66873   0.63349  -0.46122
N          N       0.33713   0.22761   0.76715  -0.37548
N          N       0.74580   0.11300   0.74597  -0.38298
N          N       0.88722   0.63340   0.74978  -0.38056
N          N       0.34727   0.29362   0.77613  -0.21085
N          N       0.69138   0.04157   0.79270  -0.20356
N          N       0.95929   0.65205   0.79168  -0.21052
N          N       0.14324   0.05662   0.53857  -0.28273
N          N       0.91854   0.08273   0.50608  -0.27282
N          N       0.90066   0.83121   0.56012  -0.28672
N          N       0.52169   0.27266   0.68874  -0.28680
N          N       0.74519   0.24934   0.74912  -0.28693
N          N       0.76219   0.50069   0.71798  -0.29512
O          O       0.39312   0.31887   0.15921  -0.53587
O          O       0.71859   0.10274   0.16681  -0.52114
O          O       0.89966   0.61836   0.17483  -0.51590
O          O       0.38547   0.35344   0.29380  -0.34513
O          O       0.67048   0.06937   0.23218  -0.32825
O          O       0.93454   0.60485   0.23045  -0.33031
O          O       0.38127   0.28107   0.68335  -0.51631
O          O       0.68101   0.07355   0.65075  -0.54030
O          O       0.92782   0.60954   0.65132  -0.53710
O          O       0.39541   0.32964   0.73855  -0.33031
O          O       0.64476   0.03387   0.79473  -0.34643
O          O       0.96924   0.61444   0.78838  -0.34361

