data_crystal

_audit_creation_method 'AiiDA-DDEC plugin'

_cell_length_a        25.95139
_cell_length_b        25.83091
_cell_length_c         7.91481

_cell_angle_alpha     84.79955
_cell_angle_beta     125.18671
_cell_angle_gamma     119.18721

_symmetry_space_group_name_Hall 'P 1'
_symmetry_space_group_name_H-M  'P 1'

loop_
_symmetry_equiv_pos_as_xyz
 'x,y,z'

loop_
_atom_site_label
_atom_site_type_symbol
_atom_site_fract_x
_atom_site_fract_y
_atom_site_fract_z
_atom_site_charge
H          H       0.32841   0.58407   0.32620   0.11341
H          H       0.47804   0.76090   0.33297   0.11538
H          H       0.29209   0.73164   0.28683   0.11412
H          H       0.59613   0.67877   0.35223   0.08862
H          H       0.36937   0.92673   0.25723   0.08748
H          H       0.13635   0.47264   0.33847   0.08996
H          H       0.53543   0.72478   0.36265   0.13494
H          H       0.33032   0.82159   0.28879   0.13167
H          H       0.24641   0.53667   0.35569   0.13043
H          H       0.70891   0.45426   0.15234   0.11203
H          H       0.56458   0.28182   0.17819   0.11088
H          H       0.74238   0.30483   0.18956   0.10936
H          H       0.69367   0.57233   0.34735   0.11852
H          H       0.46046   0.12230   0.19294   0.11053
H          H       0.91294   0.36432   0.22132   0.11413
H          H       0.65347   0.63567   0.38931   0.11410
H          H       0.40611   0.01675   0.22472   0.11402
H          H       0.02879   0.41613   0.25863   0.11310
H          H       0.45382   0.47133   0.23506   0.13268
H          H       0.56987   0.00281   0.25363   0.12785
H          H       0.03617   0.58631   0.25994   0.12785
H          H       0.49447   0.40747   0.19086   0.13612
H          H       0.62668   0.11069   0.23184   0.13490
H          H       0.91623   0.53246   0.20881   0.13616
H          H       0.47424   0.56694   0.31972   0.27206
H          H       0.48060   0.91741   0.27050   0.26896
H          H       0.12745   0.58310   0.27068   0.27088
H          H       0.67580   0.47770   0.29010   0.28483
H          H       0.54298   0.20125   0.15864   0.27038
H          H       0.82860   0.36980   0.22226   0.26636
H          H       0.28952   0.54501   0.84279   0.11207
H          H       0.43381   0.71828   0.81840   0.11532
H          H       0.24927   0.69105   0.77617   0.11330
H          H       0.53572   0.62917   0.77622   0.08697
H          H       0.32461   0.88430   0.73337   0.08819
H          H       0.09253   0.43211   0.82679   0.08660
H          H       0.48342   0.67877   0.81825   0.12938
H          H       0.28289   0.77824   0.75372   0.12993
H          H       0.20649   0.49796   0.86297   0.13162
H          H       0.66617   0.41240   0.64293   0.11202
H          H       0.51698   0.23744   0.64487   0.10784
H          H       0.70562   0.26587   0.70734   0.11892
H          H       0.62884   0.52510   0.74341   0.11683
H          H       0.42018   0.08119   0.69084   0.11442
H          H       0.86551   0.32089   0.68665   0.12225
H          H       0.59197   0.58828   0.80524   0.11425
H          H       0.36391   0.97495   0.71305   0.11485
H          H       0.98095   0.37320   0.72105   0.11397
H          H       0.40589   0.42443   0.72209   0.12463
H          H       0.53135   0.96248   0.75985   0.13145
H          H       0.98987   0.54381   0.73660   0.13122
H          H       0.44460   0.36076   0.66545   0.13841
H          H       0.58800   0.07051   0.73626   0.13838
H          H       0.87324   0.49063   0.70197   0.13650
H          H       0.42855   0.52280   0.81281   0.26837
H          H       0.43895   0.87579   0.76312   0.26848
H          H       0.08195   0.54164   0.74861   0.27377
H          H       0.61280   0.43332   0.68585   0.27167
H          H       0.50519   0.16124   0.67032   0.27129
H          H       0.77774   0.32447   0.67223   0.27132
C          C       0.40769   0.66891   0.33330  -0.01029
C          C       0.38916   0.75394   0.31168  -0.00616
C          C       0.30308   0.65432   0.30928  -0.00251
C          C       0.34412   0.63141   0.32388  -0.11435
C          C       0.42981   0.72997   0.32799  -0.11208
C          C       0.32590   0.71573   0.30106  -0.09596
C          C       0.54771   0.65058   0.34900   0.11744
C          C       0.39852   0.90625   0.26541   0.11483
C          C       0.15084   0.51851   0.31497   0.12165
C          C       0.51290   0.67627   0.35574  -0.35981
C          C       0.37700   0.84688   0.28370  -0.35934
C          C       0.21287   0.55511   0.32303  -0.34484
C          C       0.63147   0.36925   0.16624  -0.02233
C          C       0.65207   0.28603   0.18259  -0.05111
C          C       0.73188   0.38501   0.16573  -0.02438
C          C       0.69122   0.40691   0.16120  -0.11974
C          C       0.61139   0.30846   0.17320  -0.12391
C          C       0.71234   0.32472   0.17891  -0.11898
C          C       0.44669   0.64017   0.34148   0.36052
C          C       0.41579   0.81921   0.30062   0.37233
C          C       0.23446   0.61630   0.29605   0.37333
C          C       0.59668   0.48542   0.26597   0.21757
C          C       0.54719   0.12360   0.20991   0.22286
C          C       0.90720   0.44512   0.21451   0.22328
C          C       0.64087   0.55001   0.32225  -0.18138
C          C       0.48475   0.09618   0.20698  -0.18791
C          C       0.93994   0.41312   0.22897  -0.18715
C          C       0.61796   0.58589   0.34536  -0.18763
C          C       0.45381   0.03627   0.22458  -0.18355
C          C       0.00580   0.44251   0.25226  -0.17923
C          C       0.54986   0.55780   0.31245   0.20247
C          C       0.48422   0.00179   0.24130   0.20120
C          C       0.04125   0.50547   0.26337   0.20360
C          C       0.50636   0.49326   0.25908  -0.16120
C          C       0.54659   0.02949   0.24312  -0.16137
C          C       0.00858   0.53745   0.24998  -0.15490
C          C       0.52870   0.45721   0.23431  -0.17167
C          C       0.57844   0.08965   0.22941  -0.14933
C          C       0.94199   0.50794   0.22301  -0.16007
C          C       0.58789   0.38949   0.17615   0.46251
C          C       0.63950   0.22397   0.21436   0.45356
C          C       0.79605   0.43094   0.16496   0.46007
C          C       0.36572   0.62767   0.83307  -0.01391
C          C       0.34609   0.71238   0.80053  -0.00602
C          C       0.26206   0.61458   0.81091  -0.00751
C          C       0.30372   0.59158   0.83081  -0.10974
C          C       0.38656   0.68808   0.81853  -0.11429
C          C       0.28354   0.67510   0.79446  -0.09968
C          C       0.49322   0.60336   0.79884   0.13337
C          C       0.35465   0.86410   0.74647   0.11705
C          C       0.10739   0.47809   0.80424   0.12144
C          C       0.46314   0.63116   0.82317  -0.35866
C          C       0.33160   0.80420   0.75832  -0.34769
C          C       0.17143   0.51551   0.82239  -0.35819
C          C       0.58527   0.32583   0.64231  -0.01414
C          C       0.61058   0.24462   0.67729  -0.03721
C          C       0.69133   0.34443   0.66764  -0.03424
C          C       0.64772   0.36488   0.65000  -0.11621
C          C       0.56635   0.26535   0.65205  -0.13356
C          C       0.67309   0.28455   0.68529  -0.13932
C          C       0.40289   0.59764   0.83639   0.36744
C          C       0.37143   0.77682   0.78136   0.37657
C          C       0.19308   0.57661   0.79506   0.36422
C          C       0.53896   0.43851   0.69934   0.21256
C          C       0.50768   0.08290   0.71079   0.21715
C          C       0.86252   0.40266   0.69700   0.21859
C          C       0.57986   0.50288   0.73892  -0.18297
C          C       0.44425   0.05497   0.70355  -0.18605
C          C       0.89321   0.37004   0.69967  -0.19109
C          C       0.55879   0.53865   0.77298  -0.18107
C          C       0.41235   0.99475   0.71639  -0.18700
C          C       0.95875   0.39971   0.72037  -0.19293
C          C       0.49526   0.51067   0.76530   0.20638
C          C       0.44373   0.96070   0.73749   0.19643
C          C       0.99500   0.46314   0.73686   0.20433
C          C       0.45488   0.44636   0.72695  -0.16433
C          C       0.50716   0.98880   0.74455  -0.17198
C          C       0.96260   0.49492   0.72700  -0.15676
C          C       0.47590   0.41029   0.69381  -0.16140
C          C       0.53904   0.04902   0.73058  -0.15728
C          C       0.89739   0.46558   0.70723  -0.16073
C          C       0.53756   0.34417   0.63625   0.46097
C          C       0.59835   0.18241   0.70698   0.45698
C          C       0.75684   0.39093   0.67406   0.45643
N          N       0.52302   0.59027   0.33325  -0.25190
N          N       0.45599   0.94136   0.25720  -0.25376
N          N       0.10699   0.53797   0.28435  -0.24469
N          N       0.62274   0.45217   0.24205  -0.36785
N          N       0.57428   0.18403   0.18749  -0.36827
N          N       0.84087   0.41176   0.19345  -0.36590
N          N       0.47101   0.54391   0.79706  -0.24721
N          N       0.41490   0.90014   0.75122  -0.25341
N          N       0.06139   0.49639   0.76158  -0.25261
N          N       0.56512   0.40619   0.67014  -0.35677
N          N       0.53549   0.14360   0.69322  -0.36800
N          N       0.79795   0.37006   0.68464  -0.36223
O          O       0.41963   0.58343   0.33459  -0.44637
O          O       0.47265   0.84881   0.30489  -0.45404
O          O       0.19737   0.63962   0.26350  -0.45568
O          O       0.52665   0.35148   0.13490  -0.46563
O          O       0.68592   0.21117   0.26367  -0.46590
O          O       0.80624   0.48224   0.14070  -0.46854
O          O       0.37785   0.54176   0.84215  -0.46456
O          O       0.42813   0.80606   0.78497  -0.45091
O          O       0.15467   0.59920   0.75542  -0.45298
O          O       0.47955   0.30531   0.61132  -0.46637
O          O       0.64260   0.16877   0.74217  -0.45752
O          O       0.77134   0.44419   0.67003  -0.46683

