data_crystal

_audit_creation_method 'AiiDA-DDEC plugin'

_cell_length_a        36.55559
_cell_length_b        37.33569
_cell_length_c         8.32609

_cell_angle_alpha     58.19146
_cell_angle_beta     89.00809
_cell_angle_gamma     119.36468

_symmetry_space_group_name_Hall 'P 1'
_symmetry_space_group_name_H-M  'P 1'

loop_
_symmetry_equiv_pos_as_xyz
 'x,y,z'

loop_
_atom_site_label
_atom_site_type_symbol
_atom_site_fract_x
_atom_site_fract_y
_atom_site_fract_z
_atom_site_charge
H          H       0.30306   0.58679   0.28757   0.11267
H          H       0.41230   0.70906   0.27574   0.10970
H          H       0.28868   0.69547   0.27716   0.10997
H          H       0.70125   0.41186   0.19589   0.11374
H          H       0.59140   0.29033   0.20655   0.11006
H          H       0.71633   0.30602   0.18533   0.11022
H          H       0.49019   0.64871   0.25469   0.08720
H          H       0.34987   0.82932   0.29395   0.08734
H          H       0.16246   0.50499   0.33176   0.08629
H          H       0.51267   0.34754   0.26329   0.08597
H          H       0.65324   0.16769   0.20569   0.08445
H          H       0.83575   0.48183   0.22315   0.08766
H          H       0.44779   0.68212   0.26319   0.12817
H          H       0.31556   0.75368   0.30128   0.12700
H          H       0.23698   0.54586   0.34644   0.12844
H          H       0.55521   0.31556   0.23674   0.12641
H          H       0.68723   0.24364   0.19670   0.12775
H          H       0.76233   0.44379   0.19838   0.12903
H          H       0.34866   0.43299   0.51177   0.08925
H          H       0.53876   0.89009   0.40479   0.09434
H          H       0.08885   0.63516   0.24145   0.09540
H          H       0.63985   0.55370   0.22135   0.10446
H          H       0.46724   0.14360   0.15047   0.10545
H          H       0.86683   0.32632   0.59293   0.10019
H          H       0.32357   0.46641   0.39165   0.12188
H          H       0.52809   0.84659   0.34686   0.10858
H          H       0.14920   0.68328   0.13574   0.11261
H          H       0.68370   0.55979   0.08498   0.11219
H          H       0.46054   0.10191   0.08902   0.09685
H          H       0.82937   0.30173   0.48305   0.11115
H          H       0.35827   0.48338   0.52429   0.10735
H          H       0.48359   0.82967   0.52931   0.12362
H          H       0.12320   0.61938   0.37162   0.08865
H          H       0.65100   0.50608   0.35095   0.11806
H          H       0.51056   0.16790   0.93837   0.12444
H          H       0.82706   0.34156   0.53558   0.11280
H          H       0.42922   0.46451   0.25286   0.12108
H          H       0.54260   0.96823   0.20925   0.11701
H          H       0.04548   0.58363   0.13181   0.12375
H          H       0.58031   0.54385   0.17948   0.12066
H          H       0.46527   0.03779   0.22580   0.11624
H          H       0.96382   0.41978   0.27821   0.12995
H          H       0.54854   0.56152   0.30764   0.10619
H          H       0.42768   0.97288   0.26550   0.10219
H          H       0.01610   0.43379   0.37677   0.10479
H          H       0.44547   0.41199   0.37866   0.10537
H          H       0.57675   0.02574   0.22339   0.10584
H          H       0.97707   0.54615   0.23810   0.10397
H          H       0.52011   0.61038   0.28511   0.11231
H          H       0.38277   0.89611   0.28134   0.10715
H          H       0.09265   0.46589   0.37542   0.10945
H          H       0.47629   0.36809   0.36297   0.10937
H          H       0.62143   0.10253   0.20840   0.10645
H          H       0.90363   0.51895   0.20590   0.11266
H          H       0.29969   0.58730   0.79465   0.11347
H          H       0.40964   0.71154   0.77122   0.11008
H          H       0.28459   0.69497   0.78999   0.11259
H          H       0.69897   0.41563   0.68070   0.11321
H          H       0.58767   0.29177   0.70773   0.10936
H          H       0.71105   0.30431   0.70448   0.11045
H          H       0.48766   0.65128   0.76046   0.08815
H          H       0.34549   0.83004   0.79405   0.08513
H          H       0.16724   0.52456   0.72715   0.08433
H          H       0.50895   0.34776   0.78510   0.08734
H          H       0.64955   0.17078   0.69037   0.08384
H          H       0.83352   0.48726   0.70200   0.08779
H          H       0.44429   0.68344   0.77097   0.12613
H          H       0.31168   0.75403   0.80376   0.13027
H          H       0.24094   0.56135   0.75211   0.12873
H          H       0.55099   0.31572   0.75179   0.13018
H          H       0.68375   0.24607   0.68545   0.12753
H          H       0.75916   0.44666   0.68961   0.12960
H          H       0.34739   0.43475   0.99573   0.08824
H          H       0.53305   0.85936   0.81145   0.10602
H          H       0.13404   0.67884   0.47106   0.09111
H          H       0.64115   0.51717   0.84152   0.10149
H          H       0.45919   0.11049   0.56255   0.09275
H          H       0.82939   0.30567  -0.00045   0.11024
H          H       0.32262   0.46911   0.88452   0.12192
H          H       0.48673   0.83375   0.01527   0.12362
H          H       0.17295   0.66172   0.51235   0.10577
H          H       0.67990   0.52892   0.65341   0.11748
H          H       0.51433   0.17181   0.41693   0.12386
H          H       0.82546   0.34653   0.04071   0.11367
H          H       0.35581   0.48173   0.02901   0.10712
H          H       0.53756   0.89844   0.88453   0.09838
H          H       0.16621   0.68948   0.62232   0.12334
H          H       0.63221   0.46411   0.85246   0.10623
H          H       0.47269   0.15776   0.60135   0.10842
H          H       0.86668   0.33400   0.10096   0.10099
H          H       0.42850   0.46736   0.75778   0.12150
H          H       0.53785   0.97042   0.70630   0.11690
H          H       0.03237   0.57374   0.76522   0.12591
H          H       0.58010   0.54941   0.66207   0.12692
H          H       0.46014   0.03932   0.72607   0.11596
H          H       0.96085   0.42420   0.79946   0.12857
H          H       0.54790   0.56590   0.80615   0.10709
H          H       0.42189   0.97306   0.76961   0.10390
H          H       0.02934   0.46675   0.68714   0.10100
H          H       0.44433   0.41235   0.91287   0.10527
H          H       0.57077   0.02586   0.72892   0.10569
H          H       0.97964   0.56301   0.65459   0.10456
H          H       0.51936   0.61509   0.77990   0.11169
H          H       0.37727   0.89575   0.78807   0.10523
H          H       0.10245   0.49282   0.71944   0.11229
H          H       0.47526   0.36885   0.89410   0.10868
H          H       0.61578   0.10255   0.71364   0.10813
H          H       0.90433   0.53107   0.63928   0.11113
H          H       0.57094   0.17490   0.70770   0.26530
H          H       0.57568   0.17407   0.20455   0.26478
H          H       0.83378   0.40418   0.20294   0.26446
H          H       0.83108   0.40680   0.70271   0.26796
H          H       0.60015   0.42517   0.23097   0.26415
H          H       0.42973   0.82790   0.25945   0.26530
H          H       0.42571   0.82906   0.76211   0.26642
H          H       0.17514   0.60117   0.21708   0.27117
H          H       0.16679   0.59391   0.79970   0.26550
H          H       0.40610   0.57564   0.25121   0.26557
H          H       0.40479   0.57866   0.74909   0.26560
H          H       0.59966   0.43064   0.70565   0.26100
C          C       0.35990   0.64462   0.28460  -0.00393
C          C       0.35310   0.70702   0.27968  -0.00396
C          C       0.29019   0.63812   0.28607  -0.01553
C          C       0.64414   0.35415   0.20036  -0.00472
C          C       0.65097   0.29296   0.19584  -0.00406
C          C       0.71445   0.36165   0.18824  -0.01306
C          C       0.31559   0.61957   0.28965  -0.11498
C          C       0.37825   0.68820   0.27949  -0.09544
C          C       0.30930   0.68194   0.28123  -0.11182
C          C       0.68867   0.37925   0.19272  -0.11442
C          C       0.62561   0.31113   0.20163  -0.09736
C          C       0.69517   0.31840   0.18969  -0.11272
C          C       0.45603   0.63075   0.25522   0.12042
C          C       0.36983   0.81615   0.28237   0.12092
C          C       0.17895   0.54239   0.30278   0.11973
C          C       0.54772   0.36660   0.25170   0.11651
C          C       0.63402   0.18265   0.20443   0.12388
C          C       0.82288   0.45086   0.20895   0.12805
C          C       0.43164   0.64901   0.26178  -0.34699
C          C       0.35074   0.77334   0.28537  -0.35151
C          C       0.22116   0.56584   0.31147  -0.36168
C          C       0.57210   0.34894   0.23632  -0.35452
C          C       0.65291   0.22552   0.20067  -0.35542
C          C       0.78111   0.42888   0.19477  -0.35896
C          C       0.38540   0.62403   0.27515   0.37832
C          C       0.37552   0.75395   0.27381   0.37121
C          C       0.24429   0.61510   0.27566   0.37199
C          C       0.61884   0.37453   0.21437   0.36791
C          C       0.62874   0.24648   0.19960   0.37114
C          C       0.76115   0.38553   0.19000   0.36797
C          C       0.35327   0.47045   0.42943  -0.18922
C          C       0.51349   0.86171   0.38690  -0.19266
C          C       0.12194   0.64173   0.22132  -0.18773
C          C       0.65019   0.53232   0.20570  -0.18224
C          C       0.48498   0.13377   0.09215  -0.19407
C          C       0.84942   0.33459   0.48662  -0.18747
C          C       0.45801   0.56518   0.25945   0.11525
C          C       0.43618   0.88696   0.25971   0.12336
C          C       0.11300   0.54308   0.25464   0.11548
C          C       0.54583   0.43031   0.26385   0.10890
C          C       0.56925   0.11434   0.21008   0.12011
C          C       0.89080   0.45275   0.23091   0.11507
C          C       0.43251   0.52220   0.25793   0.15492
C          C       0.48182   0.90872   0.23967   0.16526
C          C       0.09825   0.57529   0.18721   0.17117
C          C       0.57478   0.48001   0.21659   0.16660
C          C       0.52456   0.09475   0.21573   0.16999
C          C       0.90835   0.42435   0.26046   0.16821
C          C       0.44933   0.49524   0.26646  -0.23894
C          C       0.50748   0.95295   0.22822  -0.22857
C          C       0.05446   0.55652   0.19207  -0.22718
C          C       0.55709   0.50488   0.22455  -0.25464
C          C       0.49947   0.05138   0.22123  -0.23615
C          C       0.95131   0.44185   0.26593  -0.23230
C          C       0.49190   0.50897   0.28061   0.06189
C          C       0.48937   0.97787   0.23660   0.07055
C          C       0.02354   0.50533   0.25912   0.06667
C          C       0.51022   0.48146   0.28099   0.07620
C          C       0.51698   0.02489   0.22454   0.07592
C          C       0.97784   0.48670   0.25405   0.06854
C          C       0.51656   0.55111   0.28669  -0.13241
C          C       0.44371   0.95569   0.25645  -0.13096
C          C       0.03886   0.47368   0.32313  -0.13841
C          C       0.48185   0.43175   0.33031  -0.14843
C          C       0.56159   0.04484   0.21941  -0.14128
C          C       0.95885   0.51295   0.23704  -0.13483
C          C       0.50039   0.57894   0.27483  -0.18072
C          C       0.41776   0.91162   0.26690  -0.18249
C          C       0.08254   0.49194   0.32131  -0.18236
C          C       0.49920   0.40665   0.32219  -0.17861
C          C       0.58722   0.08859   0.21149  -0.18301
C          C       0.91664   0.49704   0.22209  -0.18027
C          C       0.35702   0.64629   0.78485  -0.00362
C          C       0.34992   0.70831   0.78172  -0.00521
C          C       0.28671   0.63860   0.79349  -0.01399
C          C       0.64103   0.35659   0.69456  -0.00474
C          C       0.64668   0.29326   0.70299  -0.00203
C          C       0.71064   0.36264   0.69092  -0.01297
C          C       0.31248   0.62068   0.79293  -0.11327
C          C       0.37534   0.69004   0.77861  -0.09663
C          C       0.30574   0.68240   0.78853  -0.11124
C          C       0.68564   0.38172   0.68589  -0.11336
C          C       0.62186   0.31242   0.70326  -0.09459
C          C       0.69068   0.31815   0.70005  -0.11109
C          C       0.45377   0.63337   0.75825   0.11895
C          C       0.36563   0.81692   0.78393   0.12215
C          C       0.17927   0.55263   0.75728   0.12606
C          C       0.54493   0.36874   0.75748   0.11972
C          C       0.62994   0.18471   0.69718   0.12371
C          C       0.82029   0.45507   0.69512   0.12302
C          C       0.42886   0.65107   0.76507  -0.34491
C          C       0.34690   0.77419   0.78680  -0.35397
C          C       0.22113   0.57390   0.77111  -0.35647
C          C       0.56893   0.35105   0.73834  -0.34917
C          C       0.64887   0.22710   0.69680  -0.35295
C          C       0.77792   0.43158   0.68808  -0.36013
C          C       0.38293   0.62619   0.77447   0.37847
C          C       0.37208   0.75517   0.77567   0.37257
C          C       0.24002   0.61454   0.79230   0.36599
C          C       0.61655   0.37846   0.70027   0.37791
C          C       0.62425   0.24677   0.70616   0.37220
C          C       0.75738   0.38672   0.69256   0.36797
C          C       0.35187   0.47191   0.92403  -0.18766
C          C       0.51450   0.86877   0.86797  -0.19460
C          C       0.14870   0.66376   0.58098  -0.18574
C          C       0.64444   0.50502   0.75072  -0.18287
C          C       0.48614   0.14122   0.56536  -0.19369
C          C       0.84857   0.33978  -0.00376  -0.19205
C          C       0.45701   0.56893   0.75809   0.11537
C          C       0.43143   0.88786   0.76178   0.12083
C          C       0.11035   0.54937   0.75465   0.11175
C          C       0.54521   0.43419   0.76500   0.11479
C          C       0.56432   0.11563   0.70923   0.11978
C          C       0.88931   0.45937   0.71153   0.11378
C          C       0.43160   0.52572   0.75787   0.15557
C          C       0.47722   0.91007   0.74011   0.16813
C          C       0.09030   0.57352   0.75527   0.15619
C          C       0.57414   0.48527   0.70495   0.16180
C          C       0.51974   0.09620   0.71449   0.16660
C          C       0.90668   0.43015   0.75594   0.17019
C          C       0.44838   0.49846   0.76967  -0.23942
C          C       0.50251   0.95436   0.72841  -0.22961
C          C       0.04709   0.55584   0.75125  -0.23686
C          C       0.55623   0.50951   0.71703  -0.23413
C          C       0.49428   0.05258   0.72181  -0.23505
C          C       0.94963   0.44876   0.76247  -0.22355
C          C       0.49094   0.51245   0.78445   0.06127
C          C       0.48391   0.97869   0.73862   0.07351
C          C       0.02314   0.51593   0.73229   0.06278
C          C       0.50925   0.48477   0.78733   0.07081
C          C       0.51145   0.02572   0.72643   0.07226
C          C       0.97744   0.49696   0.72614   0.06770
C          C       0.51577   0.55524   0.78643  -0.13192
C          C       0.43814   0.95610   0.76003  -0.13756
C          C       0.04502   0.49501   0.71611  -0.13545
C          C       0.48083   0.43346   0.85164  -0.13384
C          C       0.55595   0.04542   0.72255  -0.13448
C          C       0.95946   0.52544   0.68479  -0.13698
C          C       0.49956   0.58321   0.77211  -0.18150
C          C       0.41244   0.91182   0.77138  -0.18475
C          C       0.08719   0.51053   0.73055  -0.18066
C          C       0.49829   0.40857   0.84210  -0.18380
C          C       0.58182   0.08915   0.71412  -0.18114
C          C       0.91644   0.50724   0.67706  -0.18334
N          N       0.43892   0.59007   0.25064  -0.24322
N          N       0.41288   0.84293   0.26843  -0.22971
N          N       0.15640   0.56404   0.25667  -0.22991
N          N       0.56605   0.40830   0.24967  -0.24556
N          N       0.59206   0.15778   0.20531  -0.23138
N          N       0.84902   0.43487   0.21089  -0.23403
N          N       0.43746   0.59332   0.75023  -0.24119
N          N       0.40852   0.84378   0.77104  -0.23014
N          N       0.15204   0.56608   0.77531  -0.23830
N          N       0.56490   0.41272   0.74075  -0.24840
N          N       0.58747   0.15916   0.70371  -0.23030
N          N       0.84674   0.43927   0.69926  -0.23683
O          O       0.36545   0.58489   0.27655  -0.44955
O          O       0.41641   0.77557   0.25887  -0.45671
O          O       0.22693   0.63957   0.23565  -0.45365
O          O       0.63972   0.41453   0.20765  -0.44973
O          O       0.58867   0.22640   0.20345  -0.45660
O          O       0.78174   0.36620   0.19143  -0.46381
O          O       0.39115   0.50902   0.23691  -0.19187
O          O       0.50067   0.88624   0.21918  -0.19927
O          O       0.13010   0.62692   0.10370  -0.17666
O          O       0.62022   0.50222   0.14707  -0.16535
O          O       0.50694   0.11863   0.23098  -0.17879
O          O       0.88216   0.37882   0.28074  -0.20669
O          O       0.36362   0.58762   0.77233  -0.44984
O          O       0.41293   0.77703   0.76110  -0.45682
O          O       0.21852   0.63187   0.80375  -0.45001
O          O       0.63870   0.42096   0.67637  -0.45804
O          O       0.58371   0.22607   0.71567  -0.45949
O          O       0.77765   0.36669   0.70027  -0.45848
O          O       0.39055   0.51290   0.73405  -0.19048
O          O       0.49620   0.88812   0.71655  -0.18918
O          O       0.11337   0.61373   0.76908  -0.18751
O          O       0.62041   0.51337   0.61277  -0.21331
O          O       0.50204   0.12058   0.72554  -0.19059
O          O       0.88067   0.38305   0.78807  -0.20572

