data_crystal

_audit_creation_method 'AiiDA-DDEC plugin'

_cell_length_a        29.62739
_cell_length_b        29.66845
_cell_length_c         8.42594

_cell_angle_alpha     62.28515
_cell_angle_beta     120.97617
_cell_angle_gamma     120.71217

_symmetry_space_group_name_Hall 'P 1'
_symmetry_space_group_name_H-M  'P 1'

loop_
_symmetry_equiv_pos_as_xyz
 'x,y,z'

loop_
_atom_site_label
_atom_site_type_symbol
_atom_site_fract_x
_atom_site_fract_y
_atom_site_fract_z
_atom_site_charge
H          H       0.29503   0.57356   0.23526   0.11800
H          H       0.43617   0.72461   0.25353   0.11416
H          H       0.28352   0.71014   0.24997   0.11364
H          H       0.71457   0.42978   0.29410   0.10888
H          H       0.57123   0.28007   0.24788   0.11362
H          H       0.72485   0.29591   0.25723   0.11532
H          H       0.50888   0.64431   0.14784   0.08558
H          H       0.35452   0.88849   0.15386   0.09401
H          H       0.11569   0.48574   0.17482   0.08623
H          H       0.47306   0.36134   0.18967   0.08339
H          H       0.63949   0.13448   0.16586   0.08712
H          H       0.86735   0.52771   0.10966   0.08885
H          H       0.46088   0.69037   0.14820   0.13407
H          H       0.31262   0.79368   0.15283   0.12953
H          H       0.20994   0.53828   0.17198   0.12762
H          H       0.52697   0.31969   0.20250   0.12698
H          H       0.68076   0.22807   0.17478   0.13037
H          H       0.77448   0.47535   0.13987   0.13426
H          H       0.59830   0.52636   0.29736   0.12577
H          H       0.47271   0.06686   0.24194   0.12779
H          H       0.93376   0.40830   0.20704   0.12864
H          H       0.40458   0.46831   0.24470   0.12740
H          H       0.53772   0.93870   0.27964   0.12764
H          H       0.06947   0.59002   0.28647   0.12895
H          H       0.42690   0.54684   0.30902   0.26686
H          H       0.45917   0.86671   0.31997   0.27244
H          H       0.13589   0.58030   0.26639   0.26439
H          H       0.58494   0.44680   0.29090   0.26429
H          H       0.55237   0.13587   0.23458   0.26383
H          H       0.87263   0.41746   0.28402   0.26628
H          H       0.58254   0.63815   0.18241   0.12663
H          H       0.36008   0.97086   0.13046   0.12616
H          H       0.03764   0.43275   0.09633   0.12370
H          H       0.40220   0.38129   0.10121   0.12825
H          H       0.61791   0.06337   0.10246   0.12747
H          H       0.95159   0.59806   0.15093   0.12558
H          H       0.62660   0.60320   0.38539   0.13609
H          H       0.39855   0.99596   0.33556   0.13466
H          H       0.99763   0.38232   0.24153   0.13931
H          H       0.38351   0.38091   0.27081   0.13121
H          H       0.62267   0.00042   0.27597   0.13841
H          H       0.01169   0.60022   0.36734   0.14008
H          H       0.57957   0.61721   0.41219   0.13100
H          H       0.38082   0.92673   0.36366   0.12333
H          H       0.07080   0.41689   0.35237   0.13019
H          H       0.43644   0.35498   0.35109   0.12867
H          H       0.65102   0.05966   0.35241   0.12901
H          H       0.94523   0.55009   0.37241   0.12402
H          H       0.28963   0.56975   0.74266   0.11299
H          H       0.43054   0.72096   0.75900   0.11494
H          H       0.27702   0.70729   0.74557   0.11373
H          H       0.70915   0.42694   0.79101   0.11023
H          H       0.56531   0.27756   0.73795   0.11831
H          H       0.71979   0.29353   0.75346   0.11423
H          H       0.50279   0.64214   0.64576   0.08641
H          H       0.35051   0.88546   0.65397   0.09513
H          H       0.11247   0.48056   0.68982   0.08741
H          H       0.46833   0.36356   0.66998   0.08291
H          H       0.63782   0.12983   0.68632   0.08857
H          H       0.86270   0.52481   0.60416   0.09445
H          H       0.45419   0.68697   0.64874   0.13266
H          H       0.30707   0.79012   0.66220   0.13187
H          H       0.20607   0.53478   0.67980   0.12834
H          H       0.52071   0.32080   0.67920   0.12459
H          H       0.67827   0.22325   0.69292   0.12858
H          H       0.76889   0.47294   0.62891   0.13444
H          H       0.59535   0.52447   0.80787   0.12727
H          H       0.46743   0.06177   0.74061   0.12705
H          H       0.92915   0.40492   0.71622   0.12794
H          H       0.40050   0.46548   0.74586   0.12651
H          H       0.53448   0.93557   0.77477   0.12493
H          H       0.06456   0.58817   0.77684   0.12865
H          H       0.42250   0.54411   0.81246   0.26678
H          H       0.45409   0.86224   0.80925   0.27298
H          H       0.13001   0.57779   0.75890   0.26778
H          H       0.58217   0.44255   0.80909   0.26793
H          H       0.54604   0.13184   0.72795   0.26558
H          H       0.86863   0.41476   0.79017   0.26673
H          H       0.57564   0.63567   0.67663   0.12650
H          H       0.35703   0.96810   0.62104   0.12804
H          H       0.03298   0.42979   0.60006   0.12559
H          H       0.39849   0.38023   0.60160   0.12868
H          H       0.61314   0.06074   0.59887   0.12776
H          H       0.94797   0.59644   0.64512   0.12607
H          H       0.62226   0.60287   0.87756   0.13529
H          H       0.39360   0.98915   0.83557   0.13519
H          H       0.99008   0.37935   0.73591   0.14089
H          H       0.38156   0.37681   0.78101   0.13017
H          H       0.61815   0.99773   0.76871   0.13826
H          H       0.00799   0.59917   0.86212   0.13826
H          H       0.57602   0.61666   0.91067   0.12952
H          H       0.37528   0.92048   0.84927   0.12472
H          H       0.06327   0.41089   0.85718   0.12937
H          H       0.43494   0.35331   0.84821   0.12890
H          H       0.64717   0.05603   0.84971   0.12744
H          H       0.94135   0.54992   0.86823   0.12390
C          C       0.36805   0.64578   0.24309  -0.00486
C          C       0.36308   0.72438   0.24915  -0.01148
C          C       0.28142   0.63933   0.23465  -0.00266
C          C       0.63948   0.35861   0.26949  -0.00102
C          C       0.64391   0.28175   0.24835  -0.00471
C          C       0.72575   0.36589   0.27351  -0.00006
C          C       0.31235   0.61578   0.23656  -0.10852
C          C       0.39292   0.70019   0.24720  -0.11145
C          C       0.30754   0.69364   0.24266  -0.11573
C          C       0.69550   0.38884   0.27873  -0.10436
C          C       0.61425   0.30539   0.25401  -0.11725
C          C       0.69988   0.31224   0.26037  -0.11937
C          C       0.47607   0.62049   0.20831   0.12653
C          C       0.38155   0.86556   0.21169   0.10956
C          C       0.13815   0.52464   0.20721   0.10829
C          C       0.51827   0.38190   0.22820   0.11441
C          C       0.61845   0.14924   0.19475   0.11638
C          C       0.85501   0.48397   0.17688   0.11814
C          C       0.44815   0.64637   0.20746  -0.37501
C          C       0.35836   0.81195   0.20948  -0.36543
C          C       0.19205   0.55524   0.20576  -0.35779
C          C       0.54955   0.35866   0.23482  -0.35867
C          C       0.64162   0.20248   0.20077  -0.35900
C          C       0.80308   0.45439   0.19579  -0.36648
C          C       0.39910   0.61598   0.25897   0.37277
C          C       0.39216   0.78127   0.26771   0.37424
C          C       0.22260   0.60887   0.23432   0.37941
C          C       0.60895   0.38551   0.27220   0.37460
C          C       0.61450   0.22487   0.23080   0.36381
C          C       0.78436   0.39615   0.27363   0.37725
C          C       0.51828   0.46112   0.26496   0.14973
C          C       0.53958   0.05881   0.23554   0.14101
C          C       0.94602   0.48263   0.23362   0.13984
C          C       0.48409   0.53398   0.26876   0.14722
C          C       0.46878   0.94788   0.26773   0.14213
C          C       0.05604   0.51734   0.24568   0.14243
C          C       0.55518   0.51408   0.28285  -0.23330
C          C       0.48611   0.03850   0.24429  -0.23928
C          C       0.96388   0.44867   0.22320  -0.23014
C          C       0.44741   0.48068   0.25570  -0.23009
C          C       0.52330   0.96767   0.26825  -0.24126
C          C       0.03871   0.55035   0.26382  -0.23647
C          C       0.54016   0.55099   0.28640   0.08413
C          C       0.44974   0.98425   0.25963   0.08373
C          C       0.01800   0.46389   0.23192   0.08114
C          C       0.46263   0.44337   0.25460   0.07781
C          C       0.55944   0.02198   0.25049   0.08401
C          C       0.98504   0.53468   0.25886   0.08510
C          C       0.58443   0.60530   0.31794  -0.41455
C          C       0.39434   0.96829   0.27258  -0.41649
C          C       0.03213   0.42197   0.23061  -0.41594
C          C       0.41915   0.38714   0.24396  -0.41468
C          C       0.61592   0.03736   0.24571  -0.41174
C          C       0.97243   0.57280   0.28787  -0.41954
C          C       0.36234   0.64216   0.74599  -0.00016
C          C       0.35693   0.72100   0.74799  -0.01233
C          C       0.27533   0.63637   0.73250   0.00228
C          C       0.63397   0.35586   0.76450  -0.00331
C          C       0.63847   0.27918   0.74251  -0.00930
C          C       0.72042   0.36333   0.76943  -0.00294
C          C       0.30663   0.61235   0.73912  -0.10868
C          C       0.38699   0.69660   0.74890  -0.11495
C          C       0.30114   0.69073   0.73896  -0.11692
C          C       0.69005   0.38609   0.77474  -0.10125
C          C       0.60851   0.30286   0.74636  -0.12157
C          C       0.69458   0.30967   0.75611  -0.11757
C          C       0.47054   0.61790   0.70880   0.12862
C          C       0.37714   0.86230   0.71007   0.10422
C          C       0.13366   0.52054   0.71307   0.10719
C          C       0.51389   0.38169   0.72043   0.11548
C          C       0.61506   0.14510   0.70521   0.11590
C          C       0.85027   0.48126   0.67471   0.11344
C          C       0.44231   0.64316   0.70958  -0.37350
C          C       0.35291   0.80828   0.71198  -0.36679
C          C       0.18711   0.55183   0.70865  -0.35548
C          C       0.54422   0.35793   0.72434  -0.36118
C          C       0.63777   0.19846   0.70919  -0.35757
C          C       0.79782   0.45190   0.69032  -0.36582
C          C       0.39380   0.61256   0.76370   0.37327
C          C       0.38643   0.77780   0.76614   0.37420
C          C       0.21639   0.60621   0.73001   0.37401
C          C       0.60416   0.38247   0.77276   0.37443
C          C       0.60909   0.22209   0.72611   0.36701
C          C       0.77934   0.39376   0.77206   0.37757
C          C       0.51524   0.45906   0.77184   0.14952
C          C       0.53547   0.05481   0.73666   0.14058
C          C       0.94178   0.47999   0.73792   0.13801
C          C       0.47975   0.53169   0.77120   0.14892
C          C       0.46500   0.94375   0.76324   0.14342
C          C       0.05105   0.51414   0.74582   0.14164
C          C       0.55192   0.51194   0.79079  -0.23364
C          C       0.48167   0.03391   0.74360  -0.24197
C          C       0.95932   0.44559   0.72892  -0.22776
C          C       0.44355   0.47833   0.75831  -0.23035
C          C       0.51976   0.96393   0.76550  -0.23663
C          C       0.03396   0.54786   0.76127  -0.23418
C          C       0.53606   0.54889   0.79051   0.08198
C          C       0.44575   0.97969   0.75651   0.08346
C          C       0.01291   0.46054   0.73471   0.08033
C          C       0.45939   0.44126   0.75873   0.07846
C          C       0.55558   0.01836   0.75012   0.08580
C          C       0.98067   0.53243   0.75877   0.08524
C          C       0.57976   0.60400   0.81547  -0.41187
C          C       0.38975   0.96313   0.76634  -0.41907
C          C       0.02598   0.41810   0.73215  -0.41573
C          C       0.41655   0.38496   0.74683  -0.41294
C          C       0.61169   0.03434   0.74219  -0.41354
C          C       0.96853   0.57156   0.78401  -0.41906
N          N       0.46260   0.56585   0.27281  -0.24133
N          N       0.43811   0.89224   0.27938  -0.23943
N          N       0.11075   0.54140   0.24538  -0.24564
N          N       0.54176   0.43052   0.26474  -0.23415
N          N       0.56911   0.11450   0.22155  -0.23872
N          N       0.89135   0.45990   0.23382  -0.24480
N          N       0.45778   0.56337   0.77408  -0.24152
N          N       0.43390   0.88853   0.77076  -0.23979
N          N       0.10553   0.53814   0.74451  -0.24870
N          N       0.53863   0.42804   0.77313  -0.23825
N          N       0.56442   0.11060   0.72246  -0.23646
N          N       0.88719   0.45719   0.73897  -0.24511
O          O       0.38043   0.56436   0.31619  -0.45625
O          O       0.44580   0.80119   0.33158  -0.46303
O          O       0.20091   0.63120   0.25975  -0.46203
O          O       0.63604   0.43226   0.30203  -0.46295
O          O       0.56630   0.19744   0.24493  -0.45824
O          O       0.81474   0.36906   0.33203  -0.45946
O          O       0.37579   0.56102   0.82332  -0.45902
O          O       0.43981   0.79777   0.82356  -0.45892
O          O       0.19380   0.62917   0.74854  -0.46339
O          O       0.63262   0.42726   0.81710  -0.46043
O          O       0.55956   0.19559   0.72893  -0.46194
O          O       0.81031   0.36674   0.83676  -0.45981

