data_crystal

_audit_creation_method 'AiiDA-DDEC plugin'

_cell_length_a        22.01100
_cell_length_b        22.10194
_cell_length_c         8.05184

_cell_angle_alpha     117.69846
_cell_angle_beta     92.22419
_cell_angle_gamma     119.89103

_symmetry_space_group_name_Hall 'P 1'
_symmetry_space_group_name_H-M  'P 1'

loop_
_symmetry_equiv_pos_as_xyz
 'x,y,z'

loop_
_atom_site_label
_atom_site_type_symbol
_atom_site_fract_x
_atom_site_fract_y
_atom_site_fract_z
_atom_site_charge
H          H       0.27360   0.53291   0.23809   0.11454
H          H       0.45638   0.73778   0.24002   0.11646
H          H       0.25310   0.71884   0.25487   0.11331
H          H       0.58062   0.62836   0.22477   0.09018
H          H       0.35368   0.94194   0.22445   0.09029
H          H       0.05024   0.41990   0.29059   0.08935
H          H       0.51097   0.68583   0.22491   0.12955
H          H       0.29711   0.81582   0.22567   0.13487
H          H       0.17568   0.48799   0.28240   0.13071
H          H       0.69461   0.50904   0.25598   0.11400
H          H       0.48844   0.19458   0.30032   0.11255
H          H       0.81074   0.30237   0.27386   0.11040
H          H       0.63881   0.58092   0.24559   0.11153
H          H       0.41418   0.06372   0.29257   0.11219
H          H       0.94039   0.35925   0.27723   0.11154
H          H       0.43337   0.39475   0.23913   0.12743
H          H       0.58632   0.02478   0.19195   0.12755
H          H       0.95154   0.55471   0.24809   0.12433
H          H       0.49141   0.32351   0.25015   0.11031
H          H       0.66130   0.15874   0.20845   0.11298
H          H       0.82117   0.49646   0.24713   0.11312
H          H       0.44218   0.50549   0.23799   0.27214
H          H       0.48290   0.93305   0.23745   0.27221
H          H       0.05582   0.54939   0.25489   0.27149
H          H       0.28303   0.53756   0.73371   0.11396
H          H       0.46773   0.74357   0.74368   0.11416
H          H       0.26424   0.72489   0.75346   0.11141
H          H       0.59011   0.63248   0.72832   0.09122
H          H       0.36564   0.94842   0.72656   0.08864
H          H       0.05979   0.42482   0.78422   0.08723
H          H       0.52092   0.68985   0.72460   0.12963
H          H       0.30946   0.82297   0.73102   0.13241
H          H       0.18565   0.49296   0.77709   0.13125
H          H       0.70568   0.51670   0.76648   0.11379
H          H       0.49968   0.19970   0.79788   0.11349
H          H       0.82216   0.30929   0.77482   0.11219
H          H       0.64901   0.58808   0.75732   0.11100
H          H       0.42580   0.06940   0.79059   0.11299
H          H       0.95164   0.36607   0.77717   0.11277
H          H       0.44281   0.39769   0.73785   0.12443
H          H       0.59792   0.03033   0.68949   0.12611
H          H       0.96264   0.56203   0.75031   0.12332
H          H       0.50192   0.32763   0.74924   0.11331
H          H       0.67309   0.16480   0.70815   0.11271
H          H       0.83171   0.50269   0.74722   0.11177
H          H       0.45111   0.50931   0.73923   0.26975
H          H       0.49380   0.93749   0.73166   0.27232
H          H       0.06756   0.55707   0.75772   0.27450
C          C       0.36879   0.62994   0.23706  -0.00479
C          C       0.35934   0.73662   0.24543  -0.00580
C          C       0.25470   0.62231   0.24822  -0.01238
C          C       0.29578   0.58963   0.24020  -0.11167
C          C       0.40009   0.70357   0.24119  -0.09895
C          C       0.28702   0.69582   0.25008  -0.11226
C          C       0.52446   0.59859   0.23027   0.11609
C          C       0.38629   0.91860   0.23245   0.12314
C          C       0.07271   0.47232   0.27398   0.12178
C          C       0.48457   0.63079   0.23125  -0.34434
C          C       0.35507   0.84759   0.23524  -0.35387
C          C       0.14386   0.51127   0.26823  -0.35519
C          C       0.63106   0.36964   0.25972   0.37806
C          C       0.62287   0.26242   0.25833   0.37471
C          C       0.73052   0.36162   0.26093   0.37724
C          C       0.40947   0.59203   0.23403   0.37547
C          C       0.39636   0.81463   0.24536   0.37499
C          C       0.17731   0.58291   0.25461   0.37101
C          C       0.59681   0.41166   0.25383  -0.01679
C          C       0.57936   0.18480   0.25399  -0.01727
C          C       0.80746   0.39563   0.26068  -0.01968
C          C       0.63760   0.48480   0.25371  -0.08297
C          C       0.50896   0.15650   0.27527  -0.08007
C          C       0.84206   0.35740   0.26752  -0.07540
C          C       0.60611   0.52527   0.24884  -0.20015
C          C       0.46717   0.08268   0.26827  -0.20341
C          C       0.91504   0.38979   0.26973  -0.20246
C          C       0.53187   0.49281   0.24283   0.21394
C          C       0.49510   0.03482   0.23908   0.23000
C          C       0.95548   0.46189   0.26483   0.21666
C          C       0.49065   0.41950   0.24274  -0.19480
C          C       0.56547   0.06264   0.21709  -0.18300
C          C       0.92098   0.50022   0.25711  -0.18728
C          C       0.52273   0.37972   0.24845  -0.08043
C          C       0.60703   0.13681   0.22589  -0.07888
C          C       0.84819   0.46756   0.25551  -0.08211
C          C       0.37895   0.63499   0.73599  -0.00604
C          C       0.37071   0.74268   0.74640  -0.00562
C          C       0.26522   0.62807   0.74663  -0.01516
C          C       0.30571   0.59471   0.73747  -0.10720
C          C       0.41110   0.70926   0.74277  -0.09797
C          C       0.29807   0.70181   0.74934  -0.10942
C          C       0.53382   0.60278   0.73282   0.11546
C          C       0.39799   0.92457   0.73252   0.12273
C          C       0.08299   0.47807   0.77067   0.13038
C          C       0.49414   0.63490   0.73135  -0.35054
C          C       0.36701   0.85401   0.73706  -0.35216
C          C       0.15428   0.51704   0.76574  -0.35938
C          C       0.64227   0.37591   0.76285   0.37732
C          C       0.63421   0.26811   0.75747   0.37386
C          C       0.74161   0.36783   0.76059   0.37931
C          C       0.41888   0.59636   0.73281   0.37893
C          C       0.40800   0.82059   0.74580   0.37576
C          C       0.18822   0.58953   0.75544   0.37285
C          C       0.60760   0.41764   0.75820  -0.01910
C          C       0.59086   0.19037   0.75208  -0.02214
C          C       0.81856   0.40210   0.76031  -0.02079
C          C       0.64831   0.49158   0.76159  -0.08246
C          C       0.52037   0.16178   0.77274  -0.07598
C          C       0.85340   0.36421   0.76792  -0.07851
C          C       0.61625   0.53154   0.75693  -0.20261
C          C       0.47864   0.08798   0.76574  -0.20667
C          C       0.92634   0.39668   0.76981  -0.20472
C          C       0.54152   0.49767   0.74720   0.21799
C          C       0.50648   0.03999   0.73606   0.23429
C          C       0.96657   0.46878   0.76476   0.21579
C          C       0.50045   0.42362   0.74409  -0.19203
C          C       0.57696   0.06807   0.71442  -0.19035
C          C       0.93208   0.50727   0.75824  -0.18652
C          C       0.53314   0.38442   0.74989  -0.07839
C          C       0.61859   0.14245   0.72417  -0.07843
C          C       0.85911   0.47412   0.75557  -0.08398
N          N       0.70212   0.40370   0.26312  -0.42372
N          N       0.58928   0.29960   0.25914  -0.42532
N          N       0.69316   0.29074   0.25831  -0.41775
N          N       0.49642   0.52939   0.23477  -0.25387
N          N       0.45682   0.96115   0.23442  -0.24887
N          N       0.02826   0.49691   0.26264  -0.24169
N          N       0.71334   0.41035   0.76583  -0.42846
N          N       0.60072   0.30572   0.76138  -0.42466
N          N       0.70431   0.29640   0.75554  -0.42138
N          N       0.50565   0.53381   0.73856  -0.25475
N          N       0.46816   0.96631   0.73119  -0.24775
N          N       0.03915   0.50352   0.76126  -0.24823
O          O       0.37654   0.52633   0.23559  -0.45245
O          O       0.46369   0.84983   0.25337  -0.45220
O          O       0.14281   0.61400   0.24772  -0.45080
O          O       0.38544   0.53054   0.73380  -0.45364
O          O       0.47504   0.85495   0.75124  -0.45644
O          O       0.15470   0.62226   0.75437  -0.45297

