data_crystal

_audit_creation_method 'AiiDA-DDEC plugin'

_cell_length_a        36.57473
_cell_length_b        36.16529
_cell_length_c        11.14972

_cell_angle_alpha     90.13283
_cell_angle_beta     89.75183
_cell_angle_gamma     120.41957

_symmetry_space_group_name_Hall 'P 1'
_symmetry_space_group_name_H-M  'P 1'

loop_
_symmetry_equiv_pos_as_xyz
 'x,y,z'

loop_
_atom_site_label
_atom_site_type_symbol
_atom_site_fract_x
_atom_site_fract_y
_atom_site_fract_z
_atom_site_charge
H          H       0.32086   0.23645   0.03753   0.10784
H          H       0.76853   0.08410   0.02691   0.10503
H          H       0.91554   0.68250   0.02906   0.10512
H          H       0.43564   0.28306   0.33143   0.11575
H          H       0.71825   0.15190   0.32716   0.11474
H          H       0.85185   0.56623   0.31977   0.11445
H          H       0.23020   0.05588   0.18637   0.11397
H          H       0.94460   0.17640   0.18943   0.11469
H          H       0.82267   0.76771   0.19607   0.11439
H          H       0.34760   0.10090   0.99453   0.10330
H          H       0.89883   0.24680   0.99127   0.10352
H          H       0.75440   0.65044   0.99520   0.10326
H          H       0.36812   0.28759   0.17587   0.12245
H          H       0.71705   0.07630   0.16863   0.12398
H          H       0.92287   0.63746   0.16309   0.12243
H          H       0.34040   0.30276   0.07451   0.11451
H          H       0.70455   0.03450   0.06256   0.11535
H          H       0.96480   0.66627   0.05759   0.11532
H          H       0.38709   0.34246   0.14532   0.12336
H          H       0.66352   0.03784   0.13691   0.12368
H          H       0.95925   0.62017   0.12943   0.12385
H          H       0.46459   0.32758   0.47747   0.12259
H          H       0.67456   0.13667   0.47736   0.12455
H          H       0.86738   0.53722   0.46478   0.12243
H          H       0.44480   0.30375   0.11589   0.12796
H          H       0.69838   0.13563   0.11734   0.12745
H          H       0.86273   0.55901   0.10908   0.12745
H          H       0.45754   0.35765   0.08772   0.11951
H          H       0.64564   0.09285   0.09047   0.11925
H          H       0.90363   0.54730   0.07641   0.11912
H          H       0.36971   0.33214   0.36698   0.12223
H          H       0.67099   0.03691   0.35578   0.12179
H          H       0.96513   0.63513   0.35029   0.12287
H          H       0.42179   0.34385   0.33054   0.12409
H          H       0.65928   0.07765   0.32178   0.12358
H          H       0.92515   0.58201   0.31543   0.12292
H          H       0.41399   0.37317   0.44599   0.12086
H          H       0.62912   0.03853   0.43293   0.12052
H          H       0.96333   0.59104   0.42718   0.12172
H          H       0.33363   0.03431   0.04993   0.11707
H          H       0.96883   0.30350   0.03441   0.11667
H          H       0.69798   0.66224   0.05058   0.11718
H          H       0.29231   0.98138   0.01763   0.12115
H          H       0.02102   0.31190   0.03169   0.12183
H          H       0.68806   0.70541   0.04362   0.12124
H          H       0.29713   0.00310   0.16417   0.12247
H          H       0.99025   0.29439   0.16595   0.12020
H          H       0.70713   0.69506   0.17856   0.12091
H          H       0.21494   0.96349   0.03425   0.12271
H          H       0.03459   0.25170   0.02578   0.12190
H          H       0.74765   0.78158   0.03419   0.12154
H          H       0.20249   0.00458   0.05311   0.12723
H          H       0.99332   0.19765   0.04269   0.12823
H          H       0.80124   0.79476   0.04849   0.13091
H          H       0.22457   0.99036   0.17387   0.12150
H          H       0.00872   0.23372   0.16641   0.12264
H          H       0.76616   0.77460   0.17408   0.12219
H          H       0.29998   0.05319   0.36244   0.12008
H          H       0.94471   0.25669   0.35659   0.12039
H          H       0.74939   0.69533   0.36556   0.11929
H          H       0.24613   0.03941   0.36343   0.12925
H          H       0.96143   0.21868   0.35348   0.12910
H          H       0.78727   0.75069   0.36702   0.12959
H          H       0.25948   0.99845   0.36004   0.11757
H          H      -0.00033   0.27431   0.35222   0.11937
H          H       0.73225   0.73330   0.36375   0.11783
H          H       0.25298   0.16869   0.08399   0.29563
H          H       0.83692   0.08759   0.06939   0.29508
H          H       0.91696   0.75112   0.07287   0.29599
H          H       0.41287   0.16964   0.44820   0.29513
H          H       0.82842   0.24731   0.44762   0.29495
H          H       0.75710   0.58641   0.44178   0.29538
H          H       0.18372   0.14126   0.17724   0.10437
H          H       0.86750   0.05401   0.17223   0.10404
H          H       0.94553   0.81488   0.19012   0.10364
H          H       0.14484   0.03901   0.40010   0.11530
H          H       0.96598   0.11776   0.42742   0.11559
H          H       0.87505   0.84611   0.44820   0.11591
H          H       0.47959   0.19788   0.34894   0.10394
H          H       0.79458   0.27586   0.33587   0.10408
H          H       0.71717   0.51871   0.34725   0.10341
H          H       0.52157   0.29893   0.10738   0.11818
H          H       0.69783   0.21197   0.08909   0.11842
H          H       0.77764   0.47752   0.10943   0.11761
H          H       0.11244   0.10210   0.26706   0.11169
H          H       0.90610   0.02237   0.26604   0.11375
H          H       0.97867   0.88674   0.28067   0.11552
H          H       0.07297   0.00056   0.49101   0.11053
H          H       0.00518   0.08608   0.52087   0.11034
H          H       0.90802   0.91887   0.53763   0.11168
H          H       0.59277   0.33612   0.01239   0.11063
H          H       0.65900   0.24423   0.99649   0.11054
H          H       0.74359   0.40532   0.01569   0.11073
H          H       0.55054   0.23604   0.25693   0.11341
H          H       0.75654   0.30868   0.24456   0.11418
H          H       0.68272   0.44671   0.25705   0.11236
H          H       0.04324   0.08230   0.17270   0.10831
H          H       0.92196   0.96619   0.17753   0.10853
H          H       0.03622   0.96019   0.19066   0.10877
H          H       0.62163   0.25277   0.35127   0.10931
H          H       0.74338   0.36793   0.33943   0.10866
H          H       0.62986   0.37556   0.34515   0.10807
H          H       0.31929   0.23437   0.53165   0.10476
H          H       0.76623   0.08462   0.53110   0.10499
H          H       0.91667   0.68236   0.52708   0.10518
H          H       0.43598   0.28309   0.83312   0.11517
H          H       0.71690   0.14933   0.82931   0.11529
H          H       0.85082   0.56711   0.81867   0.11508
H          H       0.22840   0.05700   0.69558   0.11335
H          H       0.94463   0.17927   0.67812   0.11453
H          H       0.82284   0.76939   0.69680   0.11334
H          H       0.34418   0.10090   0.49642   0.10368
H          H       0.89748   0.25113   0.49446   0.10290
H          H       0.75378   0.65211   0.49662   0.10274
H          H       0.36527   0.28495   0.67293   0.12355
H          H       0.71314   0.07588   0.66739   0.12218
H          H       0.92495   0.63757   0.66120   0.12259
H          H       0.33745   0.29953   0.57002   0.11495
H          H       0.70081   0.03471   0.55893   0.11547
H          H       0.96638   0.66669   0.55468   0.11587
H          H       0.38322   0.33964   0.64364   0.12393
H          H       0.65977   0.03876   0.63038   0.12313
H          H       0.96158   0.62078   0.62603   0.12444
H          H       0.46615   0.32802   0.97599   0.12311
H          H       0.67314   0.13263   0.97977   0.12257
H          H       0.86422   0.53725   0.96867   0.12419
H          H       0.44294   0.30347   0.61771   0.12768
H          H       0.69660   0.13646   0.61767   0.12786
H          H       0.86427   0.55858   0.60495   0.12750
H          H       0.45490   0.35690   0.58768   0.11901
H          H       0.64388   0.09552   0.58223   0.11897
H          H       0.90602   0.54786   0.57532   0.11956
H          H       0.37075   0.33182   0.86650   0.12207
H          H       0.67194   0.03475   0.85887   0.12296
H          H       0.96304   0.63474   0.85226   0.12239
H          H       0.42312   0.34435   0.83023   0.12447
H          H       0.65824   0.07434   0.82855   0.12459
H          H       0.92296   0.58150   0.81779   0.12331
H          H       0.41475   0.37395   0.94365   0.12135
H          H       0.63035   0.03519   0.94132   0.12117
H          H       0.96149   0.59079   0.92870   0.12147
H          H       0.32697   0.02846   0.54633   0.11803
H          H       0.96719   0.30799   0.54833   0.11754
H          H       0.69724   0.66460   0.55097   0.11816
H          H       0.28120   0.97656   0.54203   0.12130
H          H       0.01967   0.31727   0.54104   0.12233
H          H       0.68844   0.70857   0.55199   0.12208
H          H       0.29456   0.00749   0.67608   0.12016
H          H       0.98906   0.29608   0.67407   0.12174
H          H       0.70847   0.69646   0.68191   0.12051
H          H       0.20848   0.96642   0.52670   0.12185
H          H       0.03383   0.25711   0.51742   0.12229
H          H       0.74996   0.78471   0.52739   0.12213
H          H       0.19980   0.01015   0.54440   0.12959
H          H       0.99254   0.20283   0.52864   0.12965
H          H       0.80246   0.79623   0.55439   0.12620
H          H       0.21668   0.99161   0.66852   0.12243
H          H       0.00837   0.23670   0.65742   0.12288
H          H       0.76424   0.77636   0.67246   0.12349
H          H       0.29873   0.05315   0.85382   0.12239
H          H       0.94623   0.24941   0.85556   0.11898
H          H       0.75052   0.69477   0.86316   0.12004
H          H       0.24435   0.03648   0.86714   0.12942
H          H       0.95978   0.20888   0.86247   0.12907
H          H       0.78862   0.75001   0.86901   0.12956
H          H       0.26031   0.99761   0.85585   0.11782
H          H       0.00026   0.26368   0.85166   0.11847
H          H       0.73372   0.73301   0.86239   0.11800
H          H       0.25075   0.16595   0.57429   0.29485
H          H       0.83425   0.08652   0.57761   0.29423
H          H       0.91385   0.74876   0.57763   0.29568
H          H       0.41592   0.16856   0.95024   0.29457
H          H       0.83005   0.24413   0.94160   0.29526
H          H       0.75661   0.58397   0.94379   0.29454
H          H       0.18738   0.13110   0.68769   0.10436
H          H       0.86392   0.04960   0.67924   0.10383
H          H       0.95476   0.81802   0.66668   0.10390
H          H       0.15246   0.03378   0.94621   0.11570
H          H       0.96730   0.11697   0.91060   0.11621
H          H       0.88615   0.85312   0.92438   0.11522
H          H       0.47940   0.19914   0.84132   0.10301
H          H       0.80083   0.28116   0.84036   0.10416
H          H       0.72714   0.52048   0.82950   0.10388
H          H       0.51709   0.30079   0.60277   0.12189
H          H       0.69917   0.21980   0.61219   0.11804
H          H       0.78758   0.48374   0.58324   0.11905
H          H       0.11595   0.09318   0.77744   0.11442
H          H       0.90317   0.01869   0.77292   0.11201
H          H       0.98741   0.89010   0.75567   0.11306
H          H       0.08085   0.99427   0.03708   0.11123
H          H       0.00619   0.08499   0.00532   0.11174
H          H       0.91969   0.92555   0.01530   0.11055
H          H       0.58875   0.33925   0.50991   0.11150
H          H       0.66056   0.25237   0.51927   0.11054
H          H       0.75232   0.41112   0.49354   0.11089
H          H       0.55010   0.23592   0.74794   0.11329
H          H       0.76249   0.31366   0.74964   0.11477
H          H       0.69304   0.44868   0.73739   0.11579
H          H       0.04203   0.08117   0.67921   0.10943
H          H       0.92070   0.96476   0.68523   0.10699
H          H       0.03519   0.95927   0.66643   0.10817
H          H       0.62360   0.25120   0.83960   0.10861
H          H       0.74512   0.36708   0.84181   0.10972
H          H       0.63128   0.37382   0.84082   0.11025
C          C       0.33804   0.23095   0.46137  -0.19723
C          C       0.76981   0.10686   0.46035  -0.19794
C          C       0.89499   0.66348   0.45589  -0.19911
C          C       0.31927   0.19284   0.39366   0.00453
C          C       0.80793   0.12691   0.39416   0.00633
C          C       0.87485   0.68149   0.39106   0.00520
C          C       0.34259   0.18760   0.29747  -0.03559
C          C       0.81324   0.15536   0.29714  -0.03511
C          C       0.84678   0.65793   0.29413  -0.03676
C          C       0.38555   0.22103   0.28021   0.01322
C          C       0.77989   0.16430   0.27813   0.01353
C          C       0.83821   0.61528   0.27391   0.01452
C          C       0.40306   0.25837   0.35016  -0.17352
C          C       0.74270   0.14416   0.34721  -0.17352
C          C       0.85875   0.59849   0.34100  -0.17263
C          C       0.37935   0.26469   0.43863   0.07486
C          C       0.73622   0.11386   0.43564   0.07652
C          C       0.88855   0.62270   0.42949   0.07599
C          C       0.27704   0.15782   0.41096   0.07685
C          C       0.84281   0.12028   0.41312   0.07756
C          C       0.88039   0.72297   0.41301   0.07721
C          C       0.25825   0.12232   0.33436   0.07625
C          C       0.87851   0.13761   0.33828   0.07755
C          C       0.86212   0.74086   0.34091   0.07956
C          C       0.28095   0.11731   0.23712   0.01154
C          C       0.88345   0.16503   0.23964   0.01132
C          C       0.83533   0.71816   0.24192   0.01166
C          C       0.32390   0.15022   0.22102  -0.03398
C          C       0.85046   0.17440   0.22126  -0.03384
C          C       0.82720   0.67586   0.22064  -0.03394
C          C       0.34723   0.14422   0.12623   0.00253
C          C       0.85611   0.20325   0.12468   0.00308
C          C       0.79863   0.65230   0.12448   0.00357
C          C       0.38954   0.17906   0.10956   0.07770
C          C       0.82115   0.20979   0.10564   0.07652
C          C       0.79241   0.61049   0.10422   0.07622
C          C       0.40849   0.21510   0.18438   0.07393
C          C       0.78548   0.19253   0.18058   0.07433
C          C       0.80952   0.59195   0.17837   0.07547
C          C       0.26302   0.07977   0.16801  -0.16958
C          C       0.92064   0.18483   0.17023  -0.17485
C          C       0.81504   0.73528   0.17495  -0.17348
C          C       0.28711   0.07192   0.08591   0.07566
C          C       0.92791   0.21618   0.08549   0.07656
C          C       0.78408   0.71078   0.09054   0.08127
C          C       0.32868   0.10543   0.06226  -0.19420
C          C       0.89452   0.22371   0.06048  -0.19136
C          C       0.77747   0.66984   0.06328  -0.19607
C          C       0.39759   0.30866   0.49971   0.25020
C          C       0.69220   0.08704   0.49362   0.25093
C          C       0.91496   0.60537   0.48695   0.25077
C          C       0.37195   0.31037   0.10511  -0.43417
C          C       0.69515   0.05698   0.09680  -0.43407
C          C       0.94150   0.63420   0.09066  -0.43361
C          C       0.44456   0.32558   0.04822  -0.43641
C          C       0.67691   0.11340   0.04935  -0.43645
C          C       0.88412   0.55961   0.03900  -0.43631
C          C       0.40084   0.34133   0.40475  -0.43404
C          C       0.66106   0.05834   0.39484  -0.43440
C          C       0.94393   0.60334   0.38887  -0.43471
C          C       0.27038   0.02724   0.03123   0.25287
C          C       0.97191   0.24428   0.02894   0.25124
C          C       0.75536   0.72599   0.03735   0.25107
C          C       0.30030   0.01064   0.06805  -0.43053
C          C       0.98892   0.29131   0.06790  -0.42972
C          C       0.70942   0.69525   0.08037  -0.43056
C          C       0.22549   0.99475   0.07632  -0.43141
C          C       0.00379   0.23085   0.06900  -0.42908
C          C       0.76856   0.77193   0.07665  -0.43130
C          C       0.26839   0.03010   0.39706  -0.43899
C          C       0.96896   0.24994   0.38945  -0.43916
C          C       0.75601   0.72647   0.40059  -0.43791
C          C       0.21107   0.10970   0.47018   0.27862
C          C       0.89050   0.10322   0.47612   0.27943
C          C       0.89538   0.78762   0.47993   0.27957
C          C       0.45592   0.22563   0.05070   0.27858
C          C       0.77381   0.22735   0.04303   0.27816
C          C       0.77320   0.54398   0.04449   0.27888
C          C       0.49354   0.24654   0.48451   0.00203
C          C       0.74997   0.24628   0.48321  -0.00049
C          C       0.75453   0.50617   0.47384   0.00439
C          C       0.17296   0.09038   0.05281   0.00645
C          C       0.91455   0.08748   0.03272   0.00089
C          C       0.91401   0.82902   0.04814   0.00214
C          C       0.16153   0.10902   0.14574  -0.12101
C          C       0.89784   0.06105   0.13445  -0.11985
C          C       0.93974   0.83889   0.15038  -0.11917
C          C       0.12102   0.08692   0.19675  -0.13331
C          C       0.91966   0.04301   0.18798  -0.13422
C          C       0.95852   0.87970   0.20234  -0.13751
C          C       0.09088   0.04549   0.15753   0.06539
C          C       0.95890   0.05104   0.14221   0.06577
C          C       0.95193   0.91177   0.15434   0.06494
C          C       0.10363   0.02606   0.07000  -0.13727
C          C       0.97636   0.07919   0.04381  -0.13889
C          C       0.92438   0.90089   0.05555  -0.13786
C          C       0.13828   0.05007   0.48376  -0.10751
C          C       0.95292   0.09659   0.50443  -0.10436
C          C       0.89903   0.85593   0.51757  -0.10480
C          C       0.50318   0.22883   0.38530  -0.12120
C          C       0.76553   0.27093   0.37791  -0.12078
C          C       0.72526   0.49544   0.37997  -0.12217
C          C       0.54347   0.25041   0.33280  -0.13585
C          C       0.74390   0.28939   0.32542  -0.13629
C          C       0.70553   0.45456   0.32886  -0.13536
C          C       0.57503   0.29040   0.37699   0.06545
C          C       0.70590   0.28326   0.37565   0.06471
C          C       0.71453   0.42325   0.36941   0.06604
C          C       0.56443   0.30882   0.47275  -0.13895
C          C       0.68946   0.25674   0.47765  -0.13781
C          C       0.74548   0.43506   0.45927  -0.13831
C          C       0.52802   0.28588   0.02743  -0.10417
C          C       0.71125   0.23364   0.01318  -0.10513
C          C       0.75957   0.47094   0.02709  -0.10354
C          C       0.04520   0.02394   0.18861   0.07366
C          C       0.98007   0.02729   0.18047   0.07697
C          C       0.97611   0.95773   0.18866   0.07656
C          C       0.62024   0.31157   0.34117   0.07584
C          C       0.68491   0.30740   0.33946   0.07549
C          C       0.68959   0.37730   0.33663   0.07280
C          C       0.02449   0.04770   0.18432  -0.18960
C          C       0.95627   0.98235   0.18646  -0.18962
C          C       0.02056   0.97897   0.19398  -0.18857
C          C       0.64050   0.28738   0.33997  -0.18942
C          C       0.70903   0.35230   0.33383  -0.18760
C          C       0.64513   0.35650   0.33680  -0.18956
C          C       0.33891   0.23259   0.96600  -0.20078
C          C       0.77106   0.10613   0.95685  -0.19828
C          C       0.89418   0.66410   0.95673  -0.19806
C          C       0.31943   0.19436   0.89892   0.00477
C          C       0.80863   0.12681   0.88856   0.00518
C          C       0.87475   0.68267   0.89094   0.00395
C          C       0.34195   0.18850   0.80178  -0.03348
C          C       0.81288   0.15535   0.79313  -0.03691
C          C       0.84687   0.65941   0.79331  -0.03518
C          C       0.38494   0.22139   0.78334   0.01501
C          C       0.77889   0.16353   0.77698   0.01428
C          C       0.83840   0.61682   0.77204   0.01310
C          C       0.40331   0.25884   0.85265  -0.17281
C          C       0.74206   0.14244   0.84728  -0.17364
C          C       0.85819   0.59950   0.84025  -0.17379
C          C       0.38031   0.26579   0.94181   0.07632
C          C       0.73686   0.11241   0.93516   0.07518
C          C       0.88735   0.62314   0.93066   0.07534
C          C       0.27728   0.15968   0.91838   0.07764
C          C       0.84405   0.12093   0.90495   0.07786
C          C       0.88078   0.72440   0.91247   0.07713
C          C       0.25794   0.12355   0.84414   0.07839
C          C       0.87933   0.13872   0.82855   0.07541
C          C       0.86263   0.74256   0.84074   0.07763
C          C       0.27973   0.11819   0.74480   0.01015
C          C       0.88342   0.16656   0.73188   0.01203
C          C       0.83555   0.71988   0.74210   0.01326
C          C       0.32260   0.15098   0.72593  -0.03437
C          C       0.84997   0.17547   0.71697  -0.03474
C          C       0.82737   0.67757   0.72031  -0.03513
C          C       0.34519   0.14460   0.62958   0.00280
C          C       0.85504   0.20516   0.62365   0.00307
C          C       0.79854   0.65402   0.62458   0.00295
C          C       0.38756   0.17917   0.61123   0.07665
C          C       0.81957   0.21102   0.60735   0.07679
C          C       0.79247   0.61232   0.60324   0.07789
C          C       0.40706   0.21499   0.68662   0.07361
C          C       0.78386   0.19251   0.68222   0.07376
C          C       0.81020   0.59384   0.67518   0.07442
C          C       0.26111   0.08070   0.67541  -0.17341
C          C       0.92041   0.18754   0.66202  -0.16919
C          C       0.81516   0.73698   0.67541  -0.17109
C          C       0.28433   0.07265   0.59039   0.07561
C          C       0.92723   0.21990   0.58149   0.07503
C          C       0.78403   0.71251   0.59128   0.07697
C          C       0.32593   0.10578   0.56551  -0.19184
C          C       0.89344   0.22704   0.55992  -0.19400
C          C       0.77717   0.67149   0.56411  -0.19383
C          C       0.39946   0.31004   0.00111   0.25150
C          C       0.69355   0.08520   0.99645   0.25298
C          C       0.91311   0.60522   0.98924   0.25095
C          C       0.36900   0.30777   0.60240  -0.43406
C          C       0.69192   0.05759   0.59327  -0.43262
C          C       0.94344   0.63452   0.58804  -0.43382
C          C       0.44256   0.32482   0.54882  -0.43481
C          C       0.67602   0.11570   0.54591  -0.43741
C          C       0.88632   0.55964   0.53625  -0.43616
C          C       0.40212   0.34192   0.90426  -0.43578
C          C       0.66168   0.05558   0.90027  -0.43653
C          C       0.94190   0.60296   0.89094  -0.43548
C          C       0.26669   0.02797   0.53462   0.25133
C          C       0.97118   0.24955   0.52686   0.25170
C          C       0.75535   0.72779   0.53811   0.25168
C          C       0.29408   0.00912   0.57791  -0.43099
C          C       0.98762   0.29543   0.57571  -0.43147
C          C       0.70964   0.69746   0.58360  -0.43219
C          C       0.22021   0.99745   0.57146  -0.42990
C          C       0.00318   0.23554   0.56026  -0.43088
C          C       0.76896   0.77398   0.57607  -0.42933
C          C       0.26861   0.02892   0.89398  -0.43826
C          C       0.96924   0.24144   0.89164  -0.44000
C          C       0.75702   0.72566   0.89994  -0.44020
C          C       0.21216   0.11195   0.98365   0.27784
C          C       0.89278   0.10502   0.96526   0.27999
C          C       0.89632   0.78925   0.97973   0.28027
C          C       0.45390   0.22550   0.55155   0.27743
C          C       0.77162   0.22837   0.54943   0.27982
C          C       0.77378   0.54625   0.54047   0.27711
C          C       0.49560   0.24617   0.98342   0.00046
C          C       0.75232   0.24488   0.97425   0.00232
C          C       0.75420   0.50379   0.97828  -0.00029
C          C       0.17098   0.08809   0.53547   0.00265
C          C       0.91207   0.08566   0.54453   0.00190
C          C       0.91280   0.82720   0.54885   0.00394
C          C       0.16247   0.10278   0.64302  -0.11976
C          C       0.89495   0.05802   0.64372  -0.11937
C          C       0.94397   0.83967   0.63815  -0.12041
C          C       0.12196   0.08120   0.69445  -0.13639
C          C       0.91711   0.04025   0.69688  -0.13500
C          C       0.96264   0.88060   0.68870  -0.13409
C          C       0.08902   0.04418   0.64054   0.06434
C          C       0.95701   0.04956   0.65314   0.06523
C          C       0.95063   0.91017   0.65237   0.06596
C          C       0.09831   0.02862   0.53553  -0.13856
C          C       0.97478   0.07905   0.55781  -0.13745
C          C       0.91749   0.89642   0.56844  -0.13759
C          C       0.14357   0.04797   0.01835  -0.10637
C          C       0.95468   0.09691   0.98988  -0.10503
C          C       0.90582   0.86059   0.00370  -0.10507
C          C       0.50404   0.22899   0.88057  -0.12175
C          C       0.76987   0.27298   0.87603  -0.12005
C          C       0.73060   0.49538   0.87211  -0.12146
C          C       0.54418   0.24994   0.82679  -0.13535
C          C       0.74812   0.29139   0.82408  -0.13725
C          C       0.71129   0.45471   0.81933  -0.13829
C          C       0.57690   0.28885   0.87315   0.06420
C          C       0.70808   0.28193   0.86719   0.06577
C          C       0.71552   0.42160   0.87045   0.06515
C          C       0.56758   0.30666   0.97317  -0.13801
C          C       0.68966   0.25162   0.96051  -0.13842
C          C       0.74078   0.43089   0.97379  -0.13902
C          C       0.52469   0.28740   0.52573  -0.10782
C          C       0.71098   0.23874   0.53067  -0.10485
C          C       0.76505   0.47546   0.51055  -0.10421
C          C       0.04391   0.02268   0.67852   0.07675
C          C       0.97868   0.02579   0.68663   0.07627
C          C       0.97504   0.95631   0.68341   0.07387
C          C       0.62199   0.30992   0.83514   0.07675
C          C       0.68697   0.30618   0.83335   0.07425
C          C       0.69113   0.37590   0.83395   0.07617
C          C       0.02323   0.04640   0.68585  -0.18831
C          C       0.95510   0.98079   0.68971  -0.18889
C          C       0.01952   0.97774   0.67961  -0.18883
C          C       0.64247   0.28594   0.83150  -0.18994
C          C       0.71085   0.35119   0.83213  -0.19104
C          C       0.64669   0.35491   0.83211  -0.18931
N          N       0.24617   0.14946   0.49675  -0.30638
N          N       0.85068   0.09771   0.49973  -0.30685
N          N       0.90216   0.75364   0.50070  -0.30989
N          N       0.21787   0.09324   0.37130  -0.38725
N          N       0.90736   0.12677   0.37756  -0.38955
N          N       0.87159   0.78045   0.38274  -0.39010
N          N       0.42042   0.18614   0.02551  -0.30561
N          N       0.81339   0.23238   0.01888  -0.30737
N          N       0.76916   0.57937   0.01929  -0.30567
N          N       0.44936   0.24300   0.14819  -0.38208
N          N       0.75711   0.20411   0.14213  -0.38360
N          N       0.79683   0.55096   0.14197  -0.38138
N          N       0.24720   0.15215   0.00596  -0.30746
N          N       0.85286   0.09892   0.99088  -0.30956
N          N       0.90280   0.75506  -0.00005  -0.30534
N          N       0.21802   0.09466   0.88492  -0.39010
N          N       0.90882   0.12844   0.86611  -0.38654
N          N       0.87241   0.78218   0.88278  -0.38857
N          N       0.41818   0.18613   0.52610  -0.30799
N          N       0.81140   0.23414   0.52360  -0.30743
N          N       0.76902   0.58136   0.51797  -0.30855
N          N       0.44780   0.24271   0.64995  -0.38128
N          N       0.75511   0.20399   0.64670  -0.38121
N          N       0.79794   0.55314   0.63672  -0.38191

