data_crystal

_audit_creation_method 'AiiDA-DDEC plugin'

_cell_length_a        25.50588
_cell_length_b        25.49818
_cell_length_c        10.84348

_cell_angle_alpha     89.23710
_cell_angle_beta     91.10599
_cell_angle_gamma     119.88879

_symmetry_space_group_name_Hall 'P 1'
_symmetry_space_group_name_H-M  'P 1'

loop_
_symmetry_equiv_pos_as_xyz
 'x,y,z'

loop_
_atom_site_label
_atom_site_type_symbol
_atom_site_fract_x
_atom_site_fract_y
_atom_site_fract_z
_atom_site_charge
H          H       0.24007   0.25374   0.24532   0.09806
H          H       0.74822   0.98635   0.24794   0.09874
H          H       0.01418   0.76217   0.22492   0.09661
H          H       0.43463   0.34648   0.24558   0.11205
H          H       0.65374   0.08702   0.23311   0.11192
H          H       0.91364   0.56746   0.23460   0.11244
H          H       0.23313   0.98721   0.22745   0.11150
H          H       0.01242   0.24506   0.24318   0.11226
H          H       0.75499   0.76806   0.21412   0.11154
H          H       0.42769   0.08008   0.25189   0.09915
H          H       0.91848   0.34632   0.24053   0.09755
H          H       0.65480   0.57319   0.23304   0.09861
H          H       0.27993   0.31632   0.45788   0.12638
H          H       0.68407   0.95105   0.44028   0.12384
H          H       0.02669   0.71430   0.46045   0.12893
H          H       0.24121   0.32661   0.32948   0.11534
H          H       0.66851   0.90847   0.30216   0.11692
H          H       0.07824   0.76224   0.34692   0.11469
H          H       0.28798   0.38849   0.42551   0.12300
H          H       0.60936   0.89214   0.40519   0.12269
H          H       0.09608   0.71515   0.43701   0.11993
H          H       0.43812   0.41922   0.33492   0.12105
H          H       0.59159   0.02558   0.35520   0.12107
H          H       0.99097   0.56738   0.29729   0.12094
H          H       0.39793   0.37146   0.46067   0.13146
H          H       0.63801   0.01956   0.47216   0.13071
H          H       0.97888   0.59647   0.43556   0.13164
H          H       0.39445   0.43835   0.42908   0.11771
H          H       0.56665   0.95582   0.43297   0.11888
H          H       0.05189   0.60802   0.40124   0.12144
H          H       0.29971   0.38224   0.13903   0.11993
H          H       0.61028   0.92676   0.12327   0.12034
H          H       0.08707   0.71902   0.14342   0.12000
H          H       0.37971   0.41862   0.13738   0.12300
H          H       0.57928   0.97440   0.14673   0.12338
H          H       0.05327   0.63963   0.12555   0.12215
H          H       0.42282   0.99583   0.29530   0.11660
H          H       0.98777   0.41490   0.33721   0.11394
H          H       0.57892   0.57534   0.29652   0.11591
H          H       0.37946   0.93682   0.39986   0.12370
H          H       0.05198   0.43278   0.43028   0.12164
H          H       0.56454   0.62114   0.39503   0.12157
H          H       0.39784   0.01189   0.43481   0.12367
H          H       0.98164   0.36687   0.46345   0.12710
H          H       0.62549   0.60799   0.42978   0.12489
H          H       0.27370   0.89784   0.43186   0.11657
H          H       0.10682   0.37904   0.42269   0.11974
H          H       0.62480   0.72804   0.40642   0.11853
H          H       0.23007   0.92319   0.34950   0.12249
H          H       0.08619   0.31615   0.32665   0.12087
H          H       0.69100   0.77132   0.31992   0.12036
H          H       0.28137   0.96970   0.46605   0.13197
H          H       0.04194   0.30802   0.45769   0.13174
H          H       0.69197   0.72595   0.44480   0.13288
H          H       0.34832   0.93763   0.12583   0.11937
H          H       0.04326   0.41682   0.14494   0.12057
H          H       0.58809   0.64212   0.11079   0.12024
H          H       0.27058   0.91514   0.13694   0.12422
H          H       0.08259   0.37589   0.13797   0.12337
H          H       0.63351   0.72199   0.12104   0.12384
H          H       0.15002   0.15739   0.19003   0.29408
H          H       0.84360   0.99306   0.17921   0.29612
H          H       0.00734   0.84996   0.17172   0.29412
H          H       0.51733   0.17673   0.19453   0.29545
H          H       0.82317   0.33981   0.17926   0.29508
H          H       0.66060   0.48389   0.17640   0.29500
H          H       0.05342   0.11286   0.17791   0.10866
H          H       0.88848   0.94078   0.16613   0.10888
H          H       0.06065   0.94759   0.17789   0.10981
H          H       0.61385   0.22114   0.18249   0.10883
H          H       0.77894   0.39254   0.16490   0.10834
H          H       0.60782   0.38687   0.18764   0.10833
H          H       0.34335   0.44687   0.23253   0.12122
H          H       0.54945   0.90429   0.22707   0.12101
H          H       0.11395   0.67796   0.23247   0.12089
H          H       0.56729   0.68302   0.21096   0.12040
H          H       0.30125   0.87787   0.22727   0.12011
H          H       0.10904   0.43908   0.23816   0.12107
H          H       0.23833   0.25046   0.74966   0.09750
H          H       0.74781   0.98620   0.75060   0.09747
H          H       0.01292   0.75942   0.75450   0.09843
H          H       0.43308   0.34525   0.73779   0.11274
H          H       0.65435   0.08793   0.74779   0.11282
H          H       0.91164   0.56497   0.73081   0.11094
H          H       0.23541   0.98566   0.74170   0.11320
H          H       0.01327   0.24561   0.74793   0.11230
H          H       0.75358   0.76713   0.74145   0.11264
H          H       0.42976   0.08040   0.71981   0.09694
H          H       0.91958   0.34721   0.75224   0.09767
H          H       0.65226   0.57225   0.73714   0.09732
H          H       0.28402   0.31378   0.96524   0.12787
H          H       0.68259   0.95771   0.96263   0.12546
H          H       0.05829   0.73482   0.92150   0.12221
H          H       0.23917   0.31932   0.84332   0.11503
H          H       0.67580   0.91384   0.83050   0.11598
H          H       0.09375   0.75329   0.77482   0.11760
H          H       0.28653   0.38360   0.93267   0.12032
H          H       0.61162   0.89416   0.92003   0.12155
H          H       0.11212   0.71287   0.88484   0.12433
H          H       0.43515   0.42115   0.81281   0.12031
H          H       0.58056   0.01576   0.82869   0.11997
H          H       0.97170   0.56443   0.86764   0.12201
H          H       0.40298   0.37754   0.94831   0.13187
H          H       0.62613   0.02183   0.96008   0.13077
H          H       0.98356   0.62095   0.97590   0.12996
H          H       0.39391   0.44098   0.91299   0.11965
H          H       0.56045   0.95179   0.92304   0.12052
H          H       0.04385   0.60789   0.93739   0.11728
H          H       0.28856   0.37085   0.64007   0.12031
H          H       0.62063   0.92115   0.63507   0.12117
H          H       0.06618   0.67108   0.61525   0.11845
H          H       0.36835   0.41690   0.63371   0.12253
H          H       0.58210   0.96298   0.63984   0.12348
H          H       0.01581   0.59403   0.65190   0.12355
H          H       0.42697   0.02256   0.86974   0.11525
H          H       0.99286   0.41863   0.83657   0.11474
H          H       0.57840   0.57292   0.81237   0.11580
H          H       0.38168   0.95002   0.93507   0.11866
H          H       0.05792   0.43655   0.92675   0.12218
H          H       0.56105   0.61865   0.90439   0.12105
H          H       0.36754   0.00999   0.97014   0.12982
H          H       0.98765   0.37210   0.96528   0.12593
H          H       0.62439   0.61001   0.94413   0.12588
H          H       0.27841   0.88274   0.87102   0.12194
H          H       0.10927   0.37972   0.92550   0.11880
H          H       0.61634   0.72621   0.90269   0.12097
H          H       0.24073   0.90115   0.75433   0.12259
H          H       0.08855   0.31713   0.82835   0.12127
H          H       0.68103   0.76970   0.81226   0.12011
H          H       0.25560   0.93661   0.90132   0.12825
H          H       0.04378   0.30906   0.95837   0.13112
H          H       0.68630   0.73067   0.94480   0.13038
H          H       0.40370   0.97851   0.65341   0.11864
H          H       0.04536   0.41774   0.64523   0.12017
H          H       0.58879   0.63348   0.61498   0.12007
H          H       0.32780   0.92917   0.60555   0.12128
H          H       0.07932   0.37209   0.63213   0.12235
H          H       0.62802   0.71363   0.62020   0.12292
H          H       0.14967   0.15522   0.69775   0.29455
H          H       0.84378   0.99353   0.69984   0.29378
H          H       0.00634   0.85021   0.70471   0.29431
H          H       0.51668   0.17687   0.67683   0.29382
H          H       0.82309   0.34032   0.69436   0.29479
H          H       0.65910   0.48381   0.67955   0.29404
H          H       0.05373   0.11223   0.69377   0.10857
H          H       0.88754   0.94144   0.70116   0.10883
H          H       0.05836   0.94562   0.69805   0.10880
H          H       0.61300   0.22098   0.68855   0.10841
H          H       0.77839   0.39268   0.68206   0.10867
H          H       0.60665   0.38669   0.67759   0.10875
H          H       0.32621   0.43700   0.73249   0.12096
H          H       0.55592   0.89581   0.72904   0.12067
H          H       0.08851   0.63272   0.72368   0.12029
H          H       0.56047   0.67140   0.70518   0.12073
H          H       0.36193   0.90583   0.72139   0.12132
H          H       0.11285   0.43669   0.72939   0.12067
C          C       0.28232   0.25367   0.23472  -0.19884
C          C       0.74763   0.02830   0.23311  -0.20281
C          C       0.97209   0.71953   0.21491  -0.19792
C          C       0.27987   0.19853   0.20989   0.00883
C          C       0.80228   0.08101   0.20541   0.01048
C          C       0.91904   0.72119   0.18653   0.00798
C          C       0.33459   0.19578   0.20521  -0.01559
C          C       0.80464   0.13828   0.19827  -0.01683
C          C       0.86182   0.66641   0.18217  -0.01587
C          C       0.39034   0.25173   0.21178   0.02597
C          C       0.74846   0.13794   0.20148   0.02794
C          C       0.86255   0.61083   0.19215   0.02847
C          C       0.39079   0.30585   0.23550  -0.17490
C          C       0.69471   0.08420   0.22647  -0.17424
C          C       0.91662   0.61111   0.22085  -0.17610
C          C       0.33735   0.30723   0.25471   0.06327
C          C       0.69404   0.02970   0.25081   0.06477
C          C       0.97129   0.66504   0.24003   0.06354
C          C       0.22526   0.14185   0.19687   0.07929
C          C       0.85904   0.08344   0.19279   0.08159
C          C       0.91657   0.77563   0.17338   0.08250
C          C       0.22317   0.08600   0.19328   0.09635
C          C       0.91486   0.13719   0.19288   0.09506
C          C       0.86301   0.77817   0.17220   0.09438
C          C       0.27759   0.08265   0.20362   0.02713
C          C       0.91782   0.19460   0.20482   0.02809
C          C       0.80541   0.72368   0.18239   0.02629
C          C       0.33341   0.13866   0.20361  -0.01724
C          C       0.86163   0.19413   0.19803  -0.01680
C          C       0.80595   0.66787   0.18059  -0.01527
C          C       0.38803   0.13573   0.21190   0.00975
C          C       0.86414   0.25144   0.20221   0.00917
C          C       0.74891   0.61324   0.19057   0.00858
C          C       0.44260   0.19257   0.20331   0.08243
C          C       0.80732   0.24911   0.18865   0.08198
C          C       0.75127   0.55863   0.18293   0.08246
C          C       0.44476   0.24854   0.20296   0.09422
C          C       0.75141   0.19548   0.18849   0.09266
C          C       0.80495   0.55620   0.18332   0.09388
C          C       0.27704   0.02809   0.22361  -0.17442
C          C       0.97169   0.24825   0.23198  -0.17728
C          C       0.75180   0.72407   0.20658  -0.17463
C          C       0.33024   0.02626   0.24827   0.06373
C          C       0.97255   0.30283   0.25257   0.06497
C          C       0.69748   0.67072   0.23138   0.06450
C          C       0.38550   0.08015   0.23604  -0.20093
C          C       0.91895   0.30422   0.22942  -0.19877
C          C       0.69633   0.61560   0.21677  -0.20083
C          C       0.33933   0.36450   0.30379   0.25295
C          C       0.63651   0.97471   0.29984   0.25166
C          C       0.02776   0.66588   0.29494   0.25177
C          C       0.28357   0.34755   0.38343  -0.43449
C          C       0.65081   0.92907   0.36517  -0.43170
C          C       0.05866   0.71742   0.39037  -0.43208
C          C       0.39596   0.40030   0.38664  -0.43254
C          C       0.60662   0.99553   0.39548  -0.43249
C          C       0.01099   0.60578   0.36105  -0.43346
C          C       0.34068   0.40549   0.19669  -0.43489
C          C       0.59120   0.94309   0.19280  -0.43632
C          C       0.07322   0.67634   0.19288  -0.43678
C          C       0.32579   0.96722   0.29587   0.25227
C          C       0.02920   0.35833   0.30493   0.25211
C          C       0.64277   0.67349   0.28070   0.25165
C          C       0.38512   0.97904   0.35976  -0.43291
C          C       0.01116   0.39508   0.38884  -0.43151
C          C       0.60077   0.61590   0.35450  -0.43095
C          C       0.27470   0.93807   0.39160  -0.43294
C          C       0.06799   0.33882   0.38250  -0.43308
C          C       0.66433   0.72804   0.36806  -0.43254
C          C       0.31063   0.92191   0.18981  -0.43466
C          C       0.06832   0.39996   0.19993  -0.43705
C          C       0.60582   0.68056   0.17417  -0.43607
C          C       0.13018   0.06525   0.18388   0.27922
C          C       0.93578   0.06522   0.17915   0.28138
C          C       0.93573   0.87106   0.16965   0.28058
C          C       0.53765   0.26927   0.19368   0.27957
C          C       0.73084   0.26800   0.17807   0.28057
C          C       0.73241   0.46322   0.17868   0.28010
C          C       0.60330   0.30114   0.18455   0.02432
C          C       0.69919   0.30226   0.17466   0.02290
C          C       0.69806   0.39730   0.17630   0.02237
C          C       0.06437   0.03317   0.17691   0.02416
C          C       0.96791   0.03148   0.17281   0.02241
C          C       0.97000   0.93693   0.16967   0.02300
C          C       0.03154   0.06378   0.17539  -0.15906
C          C       0.93754   0.96821   0.16843  -0.15908
C          C       0.03334   0.96950   0.17449  -0.15950
C          C       0.63572   0.27024   0.18024  -0.15853
C          C       0.72999   0.36560   0.17101  -0.15869
C          C       0.63482   0.36481   0.18260  -0.15815
C          C       0.28076   0.25118   0.73519  -0.19849
C          C       0.74760   0.02854   0.73988  -0.20001
C          C       0.97085   0.71743   0.73831  -0.20355
C          C       0.27882   0.19639   0.70972   0.00792
C          C       0.80254   0.08158   0.71613   0.00859
C          C       0.91794   0.72031   0.71426   0.00991
C          C       0.33358   0.19418   0.70032  -0.01737
C          C       0.80501   0.13892   0.71012  -0.01672
C          C       0.86061   0.66590   0.70404  -0.01687
C          C       0.38903   0.25059   0.70392   0.02892
C          C       0.74883   0.13850   0.71430   0.02781
C          C       0.86086   0.60996   0.70496   0.02723
C          C       0.38919   0.30447   0.72981  -0.17737
C          C       0.69497   0.08468   0.73885  -0.17501
C          C       0.91469   0.60902   0.72624  -0.17333
C          C       0.33564   0.30523   0.75253   0.06539
C          C       0.69392   0.02970   0.75877   0.06444
C          C       0.96959   0.66205   0.75037   0.06554
C          C       0.22455   0.13935   0.70232   0.08378
C          C       0.85944   0.08404   0.70696   0.08283
C          C       0.91576   0.77511   0.70779   0.08233
C          C       0.22248   0.08340   0.70283   0.09411
C          C       0.91527   0.13774   0.70693   0.09284
C          C       0.86209   0.77750   0.70645   0.09425
C          C       0.27743   0.08065   0.70738   0.02905
C          C       0.91827   0.19529   0.71586   0.02795
C          C       0.80451   0.72307   0.71190   0.02760
C          C       0.33263   0.13708   0.69795  -0.01714
C          C       0.86204   0.19484   0.71040  -0.01761
C          C       0.80478   0.66736   0.70358  -0.01722
C          C       0.38774   0.13499   0.69655   0.00956
C          C       0.86456   0.25220   0.71547   0.00945
C          C       0.74735   0.61272   0.70488   0.00886
C          C       0.44168   0.19222   0.68628   0.08320
C          C       0.80757   0.24980   0.70315   0.08228
C          C       0.74964   0.55823   0.69218   0.08078
C          C       0.44359   0.24800   0.69029   0.09262
C          C       0.75171   0.19605   0.70242   0.09364
C          C       0.80325   0.55577   0.69304   0.09476
C          C       0.27855   0.02667   0.72843  -0.17911
C          C       0.97259   0.24908   0.73909  -0.17627
C          C       0.75054   0.72336   0.73208  -0.17551
C          C       0.33303   0.02597   0.73916   0.06552
C          C       0.97388   0.30394   0.75891   0.06496
C          C       0.69541   0.66966   0.74675   0.06454
C          C       0.38690   0.08004   0.71551  -0.19857
C          C       0.91983   0.30507   0.74027  -0.19948
C          C       0.69437   0.61480   0.72752  -0.19985
C          C       0.33627   0.36184   0.80174   0.25076
C          C       0.63662   0.97338   0.80488   0.25218
C          C       0.02456   0.65755   0.79596   0.25070
C          C       0.28325   0.34309   0.89091  -0.43400
C          C       0.65308   0.93275   0.88416  -0.43270
C          C       0.07491   0.71836   0.84702  -0.43111
C          C       0.39571   0.40256   0.87300  -0.43224
C          C       0.59906   0.99219   0.88390  -0.43278
C          C       0.00448   0.60988   0.90046  -0.43078
C          C       0.32949   0.39885   0.69531  -0.43493
C          C       0.59657   0.93609   0.69532  -0.43696
C          C       0.05025   0.63765   0.69018  -0.43498
C          C       0.33595   0.97030   0.78616   0.25144
C          C       0.03191   0.35981   0.80587   0.25135
C          C       0.63890   0.67111   0.78803   0.25067
C          C       0.38072   0.98967   0.89697  -0.43252
C          C       0.01623   0.39881   0.88825  -0.43359
C          C       0.59856   0.61470   0.86674  -0.43106
C          C       0.27388   0.91997   0.83044  -0.43161
C          C       0.07045   0.34000   0.88387  -0.43191
C          C       0.65704   0.72788   0.86654  -0.43382
C          C       0.35866   0.94460   0.68546  -0.43659
C          C       0.06962   0.39884   0.69659  -0.43481
C          C       0.60188   0.67246   0.67515  -0.43463
C          C       0.12942   0.06294   0.69971   0.28040
C          C       0.93615   0.06551   0.70151   0.28003
C          C       0.93427   0.87039   0.70387   0.28033
C          C       0.53666   0.26909   0.68302   0.28125
C          C       0.73072   0.26828   0.69053   0.28022
C          C       0.73096   0.46296   0.68278   0.28111
C          C       0.60247   0.30096   0.68083   0.02280
C          C       0.69868   0.30225   0.68416   0.02333
C          C       0.69705   0.39712   0.67945   0.02298
C          C       0.06360   0.03174   0.69702   0.02261
C          C       0.96786   0.03136   0.69819   0.02295
C          C       0.96843   0.93615   0.70025   0.02344
C          C       0.03145   0.06310   0.69585  -0.15834
C          C       0.93665   0.96804   0.69993  -0.15854
C          C       0.03171   0.96818   0.69817  -0.15951
C          C       0.63505   0.27009   0.68410  -0.15803
C          C       0.72929   0.36560   0.68126  -0.15924
C          C       0.63375   0.36457   0.67852  -0.15724
N          N       0.16549   0.12768   0.19098  -0.29980
N          N       0.87333   0.03803   0.18437  -0.30254
N          N       0.96236   0.83515   0.17179  -0.30133
N          N       0.16432   0.03917   0.18574  -0.39200
N          N       0.96176   0.12528   0.18513  -0.39218
N          N       0.87554   0.83738   0.17012  -0.39175
N          N       0.50228   0.20671   0.19827  -0.30235
N          N       0.79329   0.29478   0.18213  -0.30076
N          N       0.70560   0.49899   0.18120  -0.30130
N          N       0.50361   0.29537   0.19792  -0.39154
N          N       0.70462   0.20783   0.18270  -0.39122
N          N       0.79258   0.49704   0.18100  -0.39153
N          N       0.16493   0.12537   0.70083  -0.30134
N          N       0.87367   0.03849   0.70418  -0.30087
N          N       0.96129   0.83481   0.70720  -0.30119
N          N       0.16339   0.03662   0.70189  -0.39152
N          N       0.96219   0.12563   0.70416  -0.39094
N          N       0.87416   0.83653   0.70459  -0.39159
N          N       0.50138   0.20659   0.68199  -0.30208
N          N       0.79325   0.29530   0.69571  -0.30224
N          N       0.70405   0.49866   0.68536  -0.30071
N          N       0.50247   0.29501   0.68818  -0.39193
N          N       0.70477   0.20817   0.69510  -0.39065
N          N       0.79107   0.49678   0.68787  -0.39227

