data_crystal

_audit_creation_method 'AiiDA-DDEC plugin'

_cell_length_a        31.88754
_cell_length_b        32.00960
_cell_length_c        11.18617

_cell_angle_alpha     90.25117
_cell_angle_beta     90.47764
_cell_angle_gamma     119.73168

_symmetry_space_group_name_Hall 'P 1'
_symmetry_space_group_name_H-M  'P 1'

loop_
_symmetry_equiv_pos_as_xyz
 'x,y,z'

loop_
_atom_site_label
_atom_site_type_symbol
_atom_site_fract_x
_atom_site_fract_y
_atom_site_fract_z
_atom_site_charge
H          H       0.32713   0.26388   0.49387   0.10984
H          H       0.73599   0.06109   0.49084   0.10733
H          H       0.93867   0.67304   0.48940   0.10644
H          H       0.43093   0.30799   0.21079   0.11219
H          H       0.69111   0.12171   0.20801   0.11149
H          H       0.87621   0.56768   0.20591   0.11267
H          H       0.23156   0.03271   0.31271   0.11174
H          H       0.96745   0.19415   0.31409   0.11310
H          H       0.80596   0.77312   0.30416   0.11175
H          H       0.33606   0.07400   0.03244   0.10455
H          H       0.92525   0.26093   0.04143   0.10475
H          H       0.74040   0.66632   0.02500   0.10401
H          H       0.36998   0.33365   0.07473   0.12105
H          H       0.66709   0.03727   0.06428   0.12018
H          H       0.95769   0.62551   0.06886   0.11914
H          H       0.33738   0.34090   0.46400   0.12025
H          H       0.65950   0.99447   0.45400   0.12009
H          H       0.00337   0.66078   0.46393   0.12008
H          H       0.39127   0.39278   0.02267   0.12573
H          H       0.60859   0.99847   0.00572   0.12525
H          H       0.99393   0.60151   0.01884   0.12514
H          H       0.47889   0.36129   0.37818   0.12355
H          H       0.63532   0.11319   0.37138   0.12288
H          H       0.88270   0.52062   0.36834   0.12256
H          H       0.45316   0.33881   0.02318   0.12523
H          H       0.66086   0.11463   0.01643   0.12573
H          H       0.87865   0.54401   0.01263   0.12332
H          H       0.47176   0.39869   0.48422   0.11906
H          H       0.60012   0.06923   0.47861   0.11919
H          H       0.92684   0.52700   0.47584   0.11984
H          H       0.37280   0.36914   0.25680   0.12297
H          H       0.63029   0.00264   0.24596   0.12422
H          H       0.99547   0.62509   0.25239   0.12491
H          H       0.43040   0.37703   0.22116   0.12194
H          H       0.62261   0.05261   0.21264   0.12201
H          H       0.94593   0.56750   0.21639   0.12207
H          H       0.42567   0.41614   0.32579   0.12132
H          H       0.58301   0.00825   0.31315   0.12096
H          H       0.99062   0.57276   0.32016   0.12198
H          H       0.33377   0.00239   0.12095   0.12029
H          H      -0.00006   0.32839   0.11803   0.11925
H          H       0.67043   0.67036   0.12021   0.12021
H          H       0.28678   0.94147   0.12869   0.12255
H          H       0.06016   0.33972   0.13389   0.12254
H          H       0.65824   0.71857   0.13701   0.12207
H          H       0.30498   0.97859   0.25911   0.12261
H          H       0.02175   0.32271   0.26009   0.12227
H          H       0.68088   0.70045   0.26020   0.12104
H          H       0.19950   0.92277   0.16549   0.12218
H          H       0.07681   0.27081   0.16368   0.12195
H          H       0.72681   0.80446   0.15220   0.12193
H          H       0.18622   0.97005   0.18402   0.12471
H          H       0.02896   0.21112   0.18339   0.12403
H          H       0.78784   0.81775   0.15987   0.12530
H          H       0.21960   0.95935   0.29573   0.12172
H          H       0.04235   0.25556   0.29579   0.12120
H          H       0.74853   0.78930   0.28138   0.12287
H          H       0.29775   0.01253   0.45653   0.11820
H          H       0.98720   0.29232   0.45770   0.11807
H          H       0.72618   0.71505   0.43185   0.11879
H          H       0.23814   0.00222   0.46978   0.12704
H          H       0.99654   0.24233   0.45637   0.12783
H          H       0.77184   0.77482   0.46246   0.12859
H          H       0.24969   0.95310   0.47701   0.11961
H          H       0.04648   0.30176   0.47510   0.12008
H          H       0.70993   0.75984   0.45843   0.12051
H          H       0.26193   0.19517   0.09538   0.29827
H          H       0.80810   0.07111   0.08908   0.29843
H          H       0.93173   0.73801   0.08784   0.29883
H          H       0.40438   0.14862   0.43373   0.29706
H          H       0.84847   0.25574   0.42495   0.29647
H          H       0.74477   0.59810   0.41335   0.29704
H          H       0.16648   0.02856   0.08300   0.11566
H          H       0.97379   0.13525   0.06810   0.11723
H          H       0.86482   0.83703   0.07093   0.11566
H          H       0.51119   0.31278   0.46189   0.11780
H          H       0.68170   0.19179   0.43303   0.11730
H          H       0.80246   0.49079   0.44254   0.11779
H          H       0.12640   0.12260   0.36589   0.14095
H          H       0.87994   0.00753   0.36095   0.14226
H          H       0.99804   0.87589   0.35941   0.14176
H          H       0.09405   0.98628   0.20647   0.11215
H          H       0.01561   0.10406   0.19278   0.11293
H          H       0.89540   0.91001   0.19567   0.11172
H          H       0.58235   0.35147   0.33230   0.11347
H          H       0.64289   0.22479   0.30427   0.11251
H          H       0.76741   0.41691   0.31979   0.11383
H          H       0.53113   0.21656   0.14242   0.14034
H          H       0.78138   0.32033   0.14777   0.14039
H          H       0.67768   0.46337   0.13729   0.14216
H          H       0.04746   0.09021   0.33449   0.10665
H          H       0.91198   0.95856   0.32598   0.10614
H          H       0.04449   0.95479   0.33171   0.10590
H          H       0.61330   0.24362   0.17554   0.10728
H          H       0.75240   0.37141   0.17653   0.10737
H          H       0.62382   0.38232   0.18313   0.10781
H          H       0.32670   0.26664   0.99219   0.10611
H          H       0.73528   0.06412   0.98537   0.10631
H          H       0.93618   0.67058   0.98545   0.10995
H          H       0.43267   0.31109   0.71434   0.11248
H          H       0.68787   0.12371   0.70590   0.11223
H          H       0.87362   0.56475   0.70291   0.11242
H          H       0.23465   0.03496   0.81347   0.11213
H          H       0.96589   0.20132   0.80600   0.11358
H          H       0.80274   0.76976   0.79908   0.11106
H          H       0.34320   0.07780   0.54279   0.10439
H          H       0.92052   0.26548   0.53348   0.10460
H          H       0.73739   0.66254   0.52060   0.10428
H          H       0.37138   0.33098   0.57623   0.12091
H          H       0.66819   0.03684   0.56891   0.12190
H          H       0.95956   0.62686   0.57384   0.12030
H          H       0.33776   0.34456   0.95966   0.12068
H          H       0.65891   0.99647   0.94572   0.12080
H          H       0.00157   0.65566   0.95625   0.11986
H          H       0.39122   0.38980   0.52359   0.12450
H          H       0.60954   0.99791   0.51133   0.12484
H          H       0.99864   0.60685   0.51981   0.12486
H          H       0.47923   0.36320   0.88334   0.12365
H          H       0.63433   0.11597   0.87762   0.12381
H          H       0.87603   0.51733   0.87201   0.12290
H          H       0.45419   0.33763   0.51948   0.12427
H          H       0.66138   0.11392   0.51228   0.12444
H          H       0.88337   0.54507   0.51116   0.12409
H          H       0.47184   0.40027   0.98983   0.11976
H          H       0.59935   0.07087   0.98270   0.11995
H          H       0.91982   0.52275   0.97940   0.11889
H          H       0.37555   0.37271   0.75483   0.12472
H          H       0.62748   0.00547   0.74289   0.12432
H          H       0.99212   0.61709   0.75216   0.12335
H          H       0.43314   0.37972   0.72348   0.12250
H          H       0.62044   0.05596   0.71176   0.12273
H          H       0.94023   0.56126   0.71540   0.12211
H          H       0.42812   0.41919   0.82636   0.12180
H          H       0.58094   0.01160   0.81257   0.12115
H          H       0.98273   0.56338   0.82171   0.12111
H          H       0.34038   0.00375   0.64824   0.12136
H          H       0.99707   0.33740   0.65835   0.12117
H          H       0.66771   0.66631   0.60885   0.12033
H          H       0.29198   0.94357   0.65845   0.12257
H          H       0.05726   0.34790   0.66745   0.12336
H          H       0.65469   0.71390   0.62704   0.12217
H          H       0.30745   0.98337   0.78298   0.12157
H          H       0.01720   0.32063   0.78858   0.12053
H          H       0.67627   0.69482   0.75054   0.12116
H          H       0.20564   0.92566   0.65720   0.12212
H          H       0.07228   0.27434   0.64003   0.12195
H          H       0.72248   0.80001   0.64810   0.12167
H          H       0.19128   0.97259   0.66097   0.12636
H          H       0.02187   0.21564   0.65446   0.12551
H          H       0.78343   0.81378   0.66288   0.12521
H          H       0.21784   0.96126   0.78786   0.12345
H          H       0.04115   0.25662   0.77706   0.12274
H          H       0.74184   0.78350   0.77926   0.12243
H          H       0.28031   0.00932   0.94372   0.11803
H          H       0.98746   0.26753   0.94789   0.11739
H          H       0.72530   0.71587   0.93796   0.11802
H          H       0.22114   0.99648   0.97833   0.12813
H          H       0.99720   0.21897   0.97922   0.12798
H          H       0.77273   0.77555   0.96151   0.12813
H          H       0.23530   0.94906   0.97258   0.11930
H          H       0.04729   0.27891   0.97173   0.11901
H          H       0.71130   0.76218   0.96460   0.11914
H          H       0.26203   0.19316   0.59602   0.29761
H          H       0.80780   0.06969   0.60189   0.29716
H          H       0.93420   0.73933   0.59209   0.29853
H          H       0.40288   0.14534   0.93188   0.29714
H          H       0.85296   0.25719   0.93989   0.29779
H          H       0.74592   0.60035   0.91978   0.29865
H          H       0.16889   0.02669   0.59523   0.11496
H          H       0.97439   0.13788   0.59528   0.11594
H          H       0.86291   0.83509   0.59268   0.11491
H          H       0.50512   0.31094   0.94972   0.11642
H          H       0.68596   0.19092   0.94386   0.11540
H          H       0.79705   0.48843   0.96569   0.11823
H          H       0.12591   0.12390   0.85947   0.14002
H          H       0.88056   0.00497   0.87538   0.14066
H          H       0.00249   0.87727   0.86192   0.14047
H          H       0.09728   0.98542   0.72146   0.11129
H          H       0.01690   0.10772   0.72033   0.11260
H          H       0.89316   0.90686   0.72109   0.11129
H          H       0.57758   0.35037   0.82556   0.11204
H          H       0.64652   0.22394   0.81688   0.11149
H          H       0.76207   0.41409   0.84464   0.11322
H          H       0.53706   0.21293   0.66002   0.14107
H          H       0.78621   0.32644   0.67595   0.14162
H          H       0.68172   0.46529   0.63782   0.14259
H          H       0.04840   0.08986   0.84484   0.10495
H          H       0.91335   0.95802   0.84473   0.10569
H          H       0.04620   0.95492   0.83820   0.10496
H          H       0.61664   0.24365   0.69368   0.10554
H          H       0.75415   0.37345   0.69243   0.10704
H          H       0.62377   0.38090   0.68755   0.10874
C          C       0.34229   0.25567   0.41667  -0.19305
C          C       0.74413   0.08482   0.41500  -0.19231
C          C       0.91502   0.65810   0.41179  -0.19099
C          C       0.32244   0.20722   0.38183   0.00861
C          C       0.79278   0.11368   0.38338   0.00867
C          C       0.88737   0.67914   0.37611   0.00825
C          C       0.34164   0.19444   0.28120  -0.03414
C          C       0.80531   0.14571   0.28380  -0.03269
C          C       0.85511   0.66000   0.27496  -0.03293
C          C       0.38109   0.23266   0.22036   0.01787
C          C       0.76671   0.14719   0.22221   0.01542
C          C       0.85247   0.61929   0.21501   0.01671
C          C       0.40012   0.28054   0.25871  -0.17761
C          C       0.71869   0.11809   0.25717  -0.17621
C          C       0.88048   0.59921   0.25388  -0.17651
C          C       0.38116   0.29290   0.35670   0.07071
C          C       0.70650   0.08633   0.35326   0.07047
C          C       0.91221   0.61823   0.35214   0.07210
C          C       0.28346   0.16802   0.44156   0.08181
C          C       0.83237   0.11400   0.44489   0.08211
C          C       0.88819   0.71913   0.43548   0.08204
C          C       0.26436   0.12016   0.40407   0.08605
C          C       0.88026   0.14188   0.40807   0.08726
C          C       0.86022   0.73933   0.39752   0.08620
C          C       0.28282   0.10726   0.30316   0.01696
C          C       0.89286   0.17286   0.30684   0.01723
C          C       0.82852   0.72086   0.29569   0.01715
C          C       0.32238   0.14509   0.24255  -0.03130
C          C       0.85471   0.17548   0.24678  -0.03359
C          C       0.82585   0.68031   0.23545  -0.03395
C          C       0.34135   0.13179   0.14211   0.00730
C          C       0.86762   0.20818   0.14813   0.00649
C          C       0.79333   0.66120   0.13440   0.00756
C          C       0.38069   0.17117   0.08336   0.08208
C          C       0.82791   0.20884   0.08946   0.08027
C          C       0.79249   0.62110   0.07530   0.08002
C          C       0.40003   0.21923   0.12043   0.08283
C          C       0.77981   0.17995   0.12437   0.08359
C          C       0.81991   0.60048   0.11454   0.08134
C          C       0.26282   0.05934   0.26508  -0.17721
C          C       0.94066   0.19985   0.26812  -0.17648
C          C       0.80083   0.74129   0.25675  -0.17488
C          C       0.28174   0.04628   0.16948   0.06987
C          C       0.95337   0.23225   0.17417   0.07060
C          C       0.76822   0.72183   0.16117   0.06890
C          C       0.32116   0.08313   0.10892  -0.18388
C          C       0.91626   0.23617   0.11571  -0.18267
C          C       0.76505   0.68173   0.10096  -0.18540
C          C       0.40413   0.34556   0.39855   0.25268
C          C       0.65365   0.05613   0.39147   0.25317
C          C       0.94150   0.59465   0.39396   0.24974
C          C       0.37406   0.35184   0.49627  -0.43862
C          C       0.64769   0.01930   0.48702  -0.43792
C          C       0.97776   0.62424   0.49370  -0.43513
C          C       0.45535   0.36180   0.44861  -0.43301
C          C       0.63662   0.09019   0.44218  -0.43241
C          C       0.90646   0.54374   0.44072  -0.43078
C          C       0.40842   0.37866   0.29400  -0.43618
C          C       0.62072   0.02840   0.28409  -0.43769
C          C       0.96998   0.58982   0.28920  -0.43718
C          C       0.26099   0.99332   0.13329   0.25184
C          C       0.00604   0.26329   0.13563   0.25317
C          C       0.73518   0.74190   0.12509   0.25265
C          C       0.29898   0.97808   0.16218  -0.43074
C          C       0.02289   0.31668   0.16376  -0.43066
C          C       0.68306   0.70559   0.16303  -0.43094
C          C       0.21394   0.95971   0.19912  -0.43166
C          C       0.04024   0.24919   0.19902  -0.43088
C          C       0.75069   0.79115   0.18375  -0.43280
C          C       0.24894   0.98676  -0.00107  -0.43756
C          C       0.00974   0.25690   0.00054  -0.44088
C          C       0.73612   0.74904   0.98917  -0.43632
C          C       0.22374   0.11954   0.05810   0.29665
C          C       0.88308   0.10647   0.04862   0.29476
C          C       0.89694   0.77855   0.04683   0.29693
C          C       0.44431   0.22416   0.47103   0.29590
C          C       0.77285   0.21989   0.46057   0.29439
C          C       0.77886   0.55667   0.45361   0.29511
C          C       0.48154   0.24324   0.38060  -0.10469
C          C       0.75314   0.23731   0.36863  -0.09930
C          C       0.75995   0.51836   0.36449  -0.10132
C          C       0.18683   0.09891   0.14917  -0.10426
C          C       0.90369   0.08895   0.13804  -0.10248
C          C       0.91426   0.81602   0.13827  -0.10427
C          C       0.17455   0.12331   0.23395   0.25698
C          C       0.87908   0.05350   0.22404   0.25504
C          C       0.95107   0.82809   0.22373   0.25652
C          C       0.13413   0.10048   0.30602  -0.26423
C          C       0.90177   0.03568   0.29810  -0.26219
C          C       0.96867   0.86857   0.29750  -0.26365
C          C       0.10302   0.05045   0.29554   0.09772
C          C       0.95171   0.05292   0.28754   0.09765
C          C       0.94984   0.90002   0.28755   0.09827
C          C       0.11720   0.02484   0.21829  -0.15356
C          C       0.97739   0.09067   0.20655  -0.15442
C          C       0.91043   0.88644   0.20826  -0.15314
C          C       0.15756   0.04828   0.14774  -0.07686
C          C       0.95414   0.10794   0.13457  -0.08059
C          C       0.89339   0.84594   0.13653  -0.07958
C          C       0.48879   0.21793   0.28777   0.25581
C          C       0.77921   0.27278   0.28392   0.25539
C          C       0.72525   0.50925   0.27524   0.25440
C          C       0.52793   0.23892   0.21111  -0.26187
C          C       0.75828   0.29196   0.20865  -0.26313
C          C       0.70519   0.46827   0.20275  -0.26524
C          C       0.56312   0.28772   0.22600   0.09695
C          C       0.70852   0.27609   0.21617   0.09510
C          C       0.71945   0.43339   0.21811   0.09530
C          C       0.55515   0.31424   0.31516  -0.15508
C          C       0.68120   0.23770   0.29417  -0.15255
C          C       0.75653   0.44356   0.30241  -0.15465
C          C       0.51579   0.29272   0.38955  -0.07880
C          C       0.70279   0.21914   0.36789  -0.07867
C          C       0.77601   0.48458   0.37292  -0.07914
C          C       0.05246   0.02568   0.33846   0.07545
C          C       0.97651   0.02745   0.33490   0.07452
C          C       0.97508   0.95021   0.33424   0.07433
C          C       0.61231   0.31010   0.17452   0.07497
C          C       0.68582   0.30383   0.17023   0.07489
C          C       0.69152   0.38313   0.17223   0.07339
C          C       0.02724   0.05127   0.34163  -0.17805
C          C       0.95099   0.97697   0.33718  -0.17817
C          C       0.02573   0.97516   0.34039  -0.17708
C          C       0.63518   0.28238   0.16705  -0.17741
C          C       0.71337   0.35428   0.16725  -0.18080
C          C       0.64089   0.36048   0.17082  -0.18030
C          C       0.34238   0.25838   0.91618  -0.19034
C          C       0.74286   0.08769   0.90938  -0.18917
C          C       0.91263   0.65555   0.90770  -0.19316
C          C       0.32286   0.20989   0.88169   0.00981
C          C       0.79120   0.11667   0.87551   0.00795
C          C       0.88525   0.67683   0.87123   0.00711
C          C       0.34310   0.19735   0.78274  -0.03318
C          C       0.80282   0.14859   0.77586  -0.03295
C          C       0.85326   0.65774   0.76946  -0.03369
C          C       0.38309   0.23566   0.72329   0.01831
C          C       0.76372   0.14972   0.71559   0.01817
C          C       0.85074   0.61705   0.70974   0.01775
C          C       0.40159   0.28348   0.76120  -0.17511
C          C       0.71605   0.12057   0.75330  -0.17639
C          C       0.87815   0.59653   0.75001  -0.17675
C          C       0.38172   0.29565   0.85755   0.06865
C          C       0.70475   0.08893   0.84945   0.06942
C          C       0.90952   0.61533   0.84882   0.07132
C          C       0.28361   0.17044   0.94049   0.08161
C          C       0.83133   0.11696   0.93427   0.08212
C          C       0.88603   0.71699   0.93003   0.08236
C          C       0.26503   0.12257   0.90330   0.08326
C          C       0.87897   0.14523   0.89600   0.08304
C          C       0.85816   0.73714   0.89073   0.08331
C          C       0.28477   0.10984   0.80440   0.01820
C          C       0.89079   0.17712   0.79704   0.01754
C          C       0.82627   0.71827   0.78950   0.01809
C          C       0.32457   0.14800   0.74517  -0.03270
C          C       0.85197   0.17880   0.73792  -0.03309
C          C       0.82392   0.67789   0.72937  -0.03269
C          C       0.34487   0.13502   0.64722   0.00751
C          C       0.86407   0.21119   0.63919   0.00765
C          C       0.79132   0.65855   0.62859   0.00796
C          C       0.38373   0.17444   0.58786   0.08153
C          C       0.82390   0.21028   0.57947   0.08298
C          C       0.79105   0.61881   0.56928   0.08179
C          C       0.40279   0.22243   0.62459   0.08284
C          C       0.77600   0.18159   0.61579   0.08313
C          C       0.81876   0.59847   0.60828   0.08405
C          C       0.26616   0.06190   0.76728  -0.17772
C          C       0.93848   0.20584   0.75961  -0.17832
C          C       0.79799   0.73816   0.75132  -0.17767
C          C       0.28690   0.04924   0.67474   0.06878
C          C       0.95037   0.23872   0.66690   0.07048
C          C       0.76518   0.71837   0.65629   0.06831
C          C       0.32648   0.08647   0.61598  -0.18630
C          C       0.91251   0.24079   0.60746  -0.18727
C          C       0.76239   0.67846   0.59581  -0.18571
C          C       0.40471   0.34826   0.89962   0.25224
C          C       0.65216   0.05835   0.88947   0.25241
C          C       0.93735   0.59041   0.89235   0.25103
C          C       0.37393   0.35487   0.99466  -0.43846
C          C       0.64672   0.02058   0.98169  -0.43670
C          C       0.97469   0.62023   0.98976  -0.43599
C          C       0.45529   0.36359   0.95281  -0.43074
C          C       0.63569   0.09200   0.94552  -0.43158
C          C       0.90079   0.54063   0.94275  -0.43165
C          C       0.41066   0.38171   0.79449  -0.43769
C          C       0.61852   0.03144   0.78246  -0.43848
C          C       0.96455   0.58269   0.78885  -0.43591
C          C       0.26822   0.99653   0.63917   0.25033
C          C       0.00320   0.27259   0.63419   0.25158
C          C       0.73194   0.73821   0.62037   0.25249
C          C       0.30426   0.98100   0.68508  -0.43127
C          C       0.01960   0.32262   0.69071  -0.43111
C          C       0.67953   0.70102   0.65373  -0.42937
C          C       0.21790   0.96234   0.69006  -0.43408
C          C       0.03640   0.25359   0.67961  -0.43008
C          C       0.74594   0.78658   0.68209  -0.43176
C          C       0.26344   0.99089   0.50246  -0.43493
C          C       0.00855   0.27759   0.49786  -0.43749
C          C       0.73496   0.74723   0.48518  -0.43902
C          C       0.22353   0.11757   0.55896   0.29629
C          C       0.88332   0.10469   0.56535   0.29533
C          C       0.89866   0.77969   0.55519   0.29668
C          C       0.44245   0.22090   0.96904   0.29451
C          C       0.77722   0.22059   0.97399   0.29486
C          C       0.77933   0.55824   0.96078   0.29580
C          C       0.48056   0.24011   0.88077  -0.10367
C          C       0.75751   0.23917   0.88514  -0.10339
C          C       0.75967   0.51892   0.87401  -0.10585
C          C       0.18694   0.09759   0.65027  -0.10230
C          C       0.90394   0.08848   0.65818  -0.10160
C          C       0.91539   0.81616   0.64898  -0.10185
C          C       0.17378   0.12310   0.72903   0.25529
C          C       0.87944   0.05218   0.74224   0.25710
C          C       0.95367   0.82893   0.73024   0.25673
C          C       0.13406   0.10107   0.80347  -0.26309
C          C       0.90236   0.03433   0.81537  -0.26451
C          C       0.97155   0.86915   0.80492  -0.26569
C          C       0.10422   0.05062   0.80031   0.09734
C          C       0.95257   0.05279   0.80671   0.09682
C          C       0.95126   0.89950   0.80107   0.09908
C          C       0.11924   0.02430   0.72807  -0.15126
C          C       0.97822   0.09241   0.73078  -0.15216
C          C       0.90992   0.88456   0.72791  -0.15136
C          C       0.15915   0.04704   0.65575  -0.07658
C          C       0.95467   0.10945   0.65916  -0.07828
C          C       0.89282   0.84450   0.65445  -0.07653
C          C       0.49130   0.21436   0.79627   0.25400
C          C       0.78363   0.27680   0.80572   0.25324
C          C       0.72738   0.51060   0.77896   0.25697
C          C       0.53118   0.23573   0.72200  -0.26450
C          C       0.76260   0.29623   0.73169  -0.26362
C          C       0.70723   0.46915   0.70801  -0.26480
C          C       0.56388   0.28549   0.73170   0.09668
C          C       0.71236   0.27827   0.73520   0.09615
C          C       0.71918   0.43309   0.73051   0.09608
C          C       0.55243   0.31225   0.81226  -0.15344
C          C       0.68519   0.23840   0.80941  -0.15159
C          C       0.75342   0.44193   0.82200  -0.15711
C          C       0.51222   0.29031   0.88378  -0.07843
C          C       0.70698   0.21973   0.88209  -0.07879
C          C       0.77277   0.48320   0.89134  -0.07960
C          C       0.05401   0.02571   0.84610   0.07392
C          C       0.97778   0.02708   0.85001   0.07400
C          C       0.97671   0.94996   0.84668   0.07371
C          C       0.61382   0.30898   0.68478   0.07411
C          C       0.68863   0.30478   0.68769   0.07478
C          C       0.69209   0.38296   0.68380   0.07467
C          C       0.02855   0.05099   0.85270  -0.17769
C          C       0.95247   0.97658   0.85267  -0.17760
C          C       0.02742   0.97515   0.84899  -0.17664
C          C       0.63795   0.28235   0.68293  -0.17842
C          C       0.71509   0.35517   0.68219  -0.18033
C          C       0.64145   0.35945   0.67935  -0.17975
N          N       0.25642   0.16787   0.03918  -0.30613
N          N       0.83465   0.09224   0.03185  -0.30657
N          N       0.91090   0.74424   0.02968  -0.30571
N          N       0.22770   0.08959   0.47663  -0.38684
N          N       0.91108   0.13577   0.48232  -0.38750
N          N       0.86701   0.77641   0.47149  -0.38727
N          N       0.41072   0.17619   0.48989  -0.30486
N          N       0.82123   0.23466   0.48069  -0.30564
N          N       0.76560   0.59149   0.47062  -0.30595
N          N       0.43783   0.24920   0.04976  -0.38384
N          N       0.74923   0.18761   0.05312  -0.38427
N          N       0.81121   0.56189   0.04421  -0.37915
N          N       0.25657   0.16577   0.54029  -0.30589
N          N       0.83494   0.09001   0.54505  -0.30439
N          N       0.91298   0.74576   0.53571  -0.30543
N          N       0.22834   0.09185   0.97559  -0.38449
N          N       0.91030   0.13833   0.96638  -0.38402
N          N       0.86524   0.77481   0.96276  -0.38595
N          N       0.40848   0.17296   0.98699  -0.30567
N          N       0.82554   0.23478   0.99355  -0.30608
N          N       0.76677   0.59365   0.97681  -0.30518
N          N       0.44021   0.25245   0.55282  -0.38170
N          N       0.74513   0.18811   0.54249  -0.38188
N          N       0.81071   0.56029   0.53710  -0.38305
F          F       0.20213   0.17275   0.24411  -0.16125
F          F       0.82966   0.03365   0.23331  -0.15946
F          F       0.97266   0.80002   0.23304  -0.16026
F          F       0.45658   0.16940   0.27258  -0.15814
F          F       0.82860   0.29134   0.27768  -0.15943
F          F       0.70856   0.54139   0.26114  -0.15906
F          F       0.19995   0.17271   0.72817  -0.16033
F          F       0.82990   0.03151   0.74993  -0.16058
F          F       0.97673   0.80210   0.73316  -0.16195
F          F       0.46245   0.16496   0.78888  -0.16169
F          F       0.83330   0.29783   0.80528  -0.16055
F          F       0.71282   0.54380   0.75603  -0.15729

