data_crystal

_audit_creation_method 'AiiDA-DDEC plugin'

_cell_length_a        31.17557
_cell_length_b        31.38380
_cell_length_c        11.30466

_cell_angle_alpha     89.62787
_cell_angle_beta     90.65320
_cell_angle_gamma     119.99578

_symmetry_space_group_name_Hall 'P 1'
_symmetry_space_group_name_H-M  'P 1'

loop_
_symmetry_equiv_pos_as_xyz
 'x,y,z'

loop_
_atom_site_label
_atom_site_type_symbol
_atom_site_fract_x
_atom_site_fract_y
_atom_site_fract_z
_atom_site_charge
H          H       0.31439   0.27875   0.47397   0.10588
H          H       0.72179   0.03333   0.46639   0.10552
H          H       0.96718   0.68737   0.47643   0.10549
H          H       0.41732   0.32616   0.18549   0.11351
H          H       0.67471   0.08991   0.17541   0.11239
H          H       0.90956   0.58417   0.18737   0.11287
H          H       0.23395   0.04179   0.33028   0.11188
H          H       0.96076   0.19068   0.32920   0.11166
H          H       0.81156   0.77057   0.32492   0.11049
H          H       0.33676   0.08758   0.04184   0.10142
H          H       0.91529   0.24908   0.03922   0.10063
H          H       0.75285   0.66794   0.03540   0.10129
H          H       0.35351   0.34874   0.04729   0.11940
H          H       0.64763   0.99891   0.02827   0.11930
H          H       0.99597   0.64767   0.04527   0.11984
H          H       0.31766   0.35431   0.42809   0.12012
H          H       0.64579   0.96102   0.41740   0.12067
H          H       0.03994   0.68411   0.42629   0.11987
H          H       0.37083   0.40774   0.48286   0.12469
H          H       0.59175   0.95987   0.47005   0.12502
H          H       0.04146   0.63201   0.48356   0.12505
H          H       0.46654   0.38291   0.35841   0.12750
H          H       0.61643   0.07989   0.34082   0.12700
H          H       0.91942   0.53581   0.35985   0.12738
H          H       0.43944   0.35697   0.49635   0.12667
H          H       0.64208   0.07896   0.48061   0.12762
H          H       0.92090   0.56342   0.49693   0.12561
H          H       0.45552   0.41890   0.46083   0.11956
H          H       0.57994   0.03276   0.44353   0.12075
H          H       0.96707   0.54729   0.46397   0.12082
H          H       0.35675   0.38430   0.22348   0.12341
H          H       0.61684   0.97066   0.21068   0.12315
H          H       0.02902   0.64370   0.22391   0.12359
H          H       0.41700   0.39443   0.19446   0.12283
H          H       0.60636   0.02018   0.17894   0.12259
H          H       0.97791   0.58424   0.19501   0.12214
H          H       0.40943   0.43411   0.29160   0.12135
H          H       0.56600   0.97233   0.27473   0.12197
H          H       0.02609   0.59099   0.29119   0.12154
H          H       0.34228   0.01748   0.14618   0.11978
H          H       0.98947   0.32478   0.14508   0.11973
H          H       0.67791   0.66681   0.12131   0.11891
H          H       0.29602   0.95428   0.15368   0.12289
H          H       0.05202   0.33950   0.16581   0.12375
H          H       0.66273   0.71392   0.13951   0.12321
H          H       0.31141   0.99202   0.28154   0.12133
H          H       0.00960   0.31489   0.28479   0.12099
H          H       0.68303   0.69314   0.26307   0.12055
H          H       0.20593   0.93001   0.18498   0.12267
H          H       0.07314   0.27066   0.18020   0.12296
H          H       0.73005   0.80187   0.17599   0.12250
H          H       0.18759   0.97508   0.19452   0.12652
H          H       0.02535   0.20823   0.18771   0.12700
H          H       0.79300   0.81770   0.19195   0.12554
H          H       0.22254   0.96839   0.31075   0.12143
H          H       0.03538   0.24880   0.30686   0.12360
H          H       0.74952   0.78289   0.30315   0.12167
H          H       0.29078   0.01888   0.46714   0.11712
H          H       0.98464   0.26656   0.45898   0.11693
H          H       0.72070   0.70415   0.45762   0.11744
H          H       0.22898   0.00469   0.49041   0.12917
H          H       0.99593   0.21780   0.49129   0.12884
H          H       0.76925   0.76579   0.47279   0.12835
H          H       0.24467   0.95724   0.49623   0.12036
H          H       0.04568   0.28001   0.49482   0.11941
H          H       0.70619   0.75109   0.48323   0.12095
H          H       0.25370   0.20562   0.08858   0.29715
H          H       0.79178   0.04944   0.08935   0.29770
H          H       0.95276   0.74766   0.08255   0.29888
H          H       0.39865   0.16041   0.43526   0.29354
H          H       0.84152   0.23568   0.42091   0.29312
H          H       0.76118   0.60278   0.42231   0.29269
H          H       0.16903   0.03579   0.10854   0.11432
H          H       0.96288   0.13120   0.10545   0.11425
H          H       0.86801   0.83347   0.09583   0.11343
H          H       0.46377   0.18533   0.31608   0.09985
H          H       0.81730   0.28302   0.31953   0.10005
H          H       0.71942   0.53613   0.30733   0.09983
H          H       0.49685   0.33159   0.41019   0.11261
H          H       0.66968   0.16233   0.37767   0.11132
H          H       0.83637   0.50624   0.39938   0.11285
H          H       0.12175   0.13039   0.37290   0.13938
H          H       0.86883   0.99118   0.37719   0.13919
H          H       0.00982   0.87913   0.36811   0.13980
H          H       0.09922   0.99109   0.24317   0.11023
H          H       0.00852   0.10581   0.23946   0.11061
H          H       0.89273   0.90242   0.23261   0.11004
H          H       0.57649   0.36625   0.29980   0.11146
H          H       0.63523   0.20895   0.27185   0.11159
H          H       0.79110   0.42614   0.29141   0.11279
H          H       0.54382   0.22008   0.21311   0.11203
H          H       0.78256   0.32930   0.21877   0.11210
H          H       0.67398   0.45571   0.20679   0.11206
H          H       0.04171   0.09062   0.36818   0.10559
H          H       0.90861   0.95052   0.35773   0.10470
H          H       0.04954   0.95816   0.35938   0.10393
H          H       0.31316   0.27829   0.97478   0.10550
H          H       0.71928   0.03439   0.96635   0.10509
H          H       0.96423   0.68643   0.97343   0.10558
H          H       0.41672   0.32673   0.68758   0.11243
H          H       0.67301   0.09139   0.67437   0.11225
H          H       0.90882   0.58364   0.68336   0.11294
H          H       0.23353   0.04167   0.82947   0.11157
H          H       0.95831   0.18951   0.82892   0.11230
H          H       0.80758   0.76761   0.81659   0.11183
H          H       0.33798   0.08791   0.54468   0.10112
H          H       0.91414   0.24699   0.53435   0.10154
H          H       0.74819   0.66239   0.53257   0.10087
H          H       0.35384   0.34969   0.54512   0.12026
H          H       0.65014   0.00124   0.53332   0.12083
H          H       0.00051   0.64938   0.54458   0.12040
H          H       0.31639   0.35379   0.93326   0.11977
H          H       0.64136   0.96014   0.90725   0.12133
H          H       0.03800   0.68323   0.93147   0.12048
H          H       0.36963   0.40707   0.98811   0.12455
H          H       0.58861   0.96024   0.96490   0.12481
H          H       0.03737   0.63004   0.98839   0.12389
H          H       0.46519   0.38451   0.85394   0.12625
H          H       0.61570   0.08240   0.84820   0.12793
H          H       0.91819   0.53572   0.85285   0.12678
H          H       0.43994   0.35841   0.99330   0.12684
H          H       0.64116   0.07897   0.98639   0.12768
H          H       0.91942   0.56148   0.99280   0.12745
H          H       0.45454   0.41998   0.95883   0.12083
H          H       0.57872   0.03403   0.94766   0.12018
H          H       0.96587   0.54623   0.95617   0.12015
H          H       0.35301   0.38289   0.72673   0.12340
H          H       0.61278   0.97381   0.70590   0.12270
H          H       0.02938   0.64629   0.72687   0.12267
H          H       0.41339   0.39416   0.69420   0.12219
H          H       0.60493   0.02531   0.67961   0.12213
H          H       0.97972   0.58664   0.69254   0.12274
H          H       0.40576   0.43371   0.79175   0.12152
H          H       0.56319   0.97707   0.77266   0.12171
H          H       0.02702   0.59358   0.79225   0.12189
H          H       0.34184   0.01519   0.64808   0.11972
H          H       0.98741   0.32240   0.63237   0.11941
H          H       0.67115   0.65829   0.64691   0.12013
H          H       0.29497   0.95291   0.66921   0.12322
H          H       0.04994   0.33753   0.65648   0.12315
H          H       0.65586   0.70538   0.66351   0.12299
H          H       0.31283   0.99550   0.78785   0.12077
H          H       0.00729   0.31508   0.77516   0.12028
H          H       0.68399   0.69080   0.78279   0.12113
H          H       0.20499   0.92990   0.68304   0.12254
H          H       0.03396   0.25183   0.81040   0.12086
H          H       0.72373   0.79548   0.66356   0.12189
H          H       0.18774   0.97577   0.69064   0.12654
H          H       0.07097   0.26839   0.68217   0.12197
H          H       0.78709   0.81185   0.66644   0.12769
H          H       0.22070   0.96772   0.80959   0.12241
H          H       0.02275   0.20677   0.70188   0.12599
H          H       0.74907   0.78304   0.79097   0.12212
H          H       0.28708   0.01925   0.96329   0.11641
H          H       0.98467   0.27152   0.96405   0.11687
H          H       0.73732   0.72055   0.95355   0.11613
H          H       0.22584   0.00500   0.99375   0.12862
H          H       0.99680   0.22275   0.98730   0.12899
H          H       0.78578   0.78047   0.98762   0.12880
H          H       0.24169   0.95758   0.99502   0.11959
H          H       0.04614   0.28508   0.99405   0.12077
H          H       0.72301   0.76751   0.98267   0.11943
H          H       0.25259   0.20565   0.58593   0.29855
H          H       0.79413   0.04706   0.58568   0.29846
H          H       0.95452   0.74709   0.59137   0.29867
H          H       0.39803   0.15980   0.93335   0.29304
H          H       0.84299   0.23798   0.92745   0.29436
H          H       0.76260   0.60527   0.92893   0.29335
H          H       0.16893   0.03549   0.60824   0.11462
H          H       0.96523   0.13097   0.60813   0.11421
H          H       0.87041   0.83362   0.60424   0.11423
H          H       0.46758   0.18455   0.83086   0.09981
H          H       0.81842   0.28415   0.82429   0.10019
H          H       0.71950   0.53744   0.81481   0.09985
H          H       0.49260   0.33065   0.89296   0.11076
H          H       0.67106   0.16354   0.88546   0.11110
H          H       0.83608   0.50712   0.90666   0.11286
H          H       0.12292   0.13066   0.87403   0.13939
H          H       0.86986   0.99047   0.87758   0.13990
H          H       0.00890   0.87651   0.88551   0.13948
H          H       0.10047   0.99104   0.74605   0.11073
H          H       0.01012   0.10572   0.74400   0.11038
H          H       0.89483   0.90264   0.74033   0.11068
H          H       0.57254   0.36559   0.78415   0.11148
H          H       0.63619   0.21018   0.78177   0.11084
H          H       0.79050   0.42692   0.79901   0.11179
H          H       0.54758   0.21985   0.72747   0.11183
H          H       0.78325   0.33057   0.72605   0.11158
H          H       0.67368   0.45695   0.71463   0.11169
H          H       0.04306   0.09033   0.86799   0.10506
H          H       0.90994   0.94981   0.86947   0.10581
H          H       0.05100   0.95792   0.86542   0.10416
C          C       0.33025   0.27060   0.39838  -0.19050
C          C       0.73000   0.05804   0.39161  -0.19123
C          C       0.94274   0.67146   0.40036  -0.19128
C          C       0.31316   0.22109   0.37060   0.00886
C          C       0.77987   0.09139   0.36665   0.01014
C          C       0.91005   0.68868   0.37202   0.00977
C          C       0.33385   0.20884   0.27243  -0.03394
C          C       0.79263   0.12473   0.26858  -0.03514
C          C       0.87684   0.66852   0.27256  -0.03220
C          C       0.37149   0.24861   0.20587   0.01770
C          C       0.75281   0.12255   0.19992   0.01895
C          C       0.87843   0.63065   0.20667   0.01742
C          C       0.38769   0.29750   0.23741  -0.17600
C          C       0.70351   0.08912   0.22886  -0.17863
C          C       0.91105   0.61397   0.23915  -0.17549
C          C       0.36762   0.30931   0.33370   0.06861
C          C       0.69125   0.05643   0.32429   0.06828
C          C       0.94381   0.63411   0.33543   0.06841
C          C       0.27617   0.18039   0.43612   0.08411
C          C       0.82056   0.09523   0.43439   0.08209
C          C       0.90650   0.72552   0.43773   0.08327
C          C       0.26034   0.13139   0.40703   0.08278
C          C       0.87003   0.12814   0.40646   0.08400
C          C       0.87366   0.74210   0.40689   0.08340
C          C       0.28046   0.11890   0.30892   0.01823
C          C       0.88312   0.16089   0.30766   0.01709
C          C       0.84118   0.72293   0.30649   0.01768
C          C       0.31779   0.15841   0.24220  -0.03219
C          C       0.84353   0.15910   0.23972  -0.03378
C          C       0.84280   0.68533   0.24020  -0.03295
C          C       0.33817   0.14576   0.14409   0.00657
C          C       0.85658   0.19223   0.14102   0.00641
C          C       0.80948   0.66541   0.14063   0.00622
C          C       0.37531   0.18658   0.07947   0.07967
C          C       0.81566   0.18879   0.07486   0.08000
C          C       0.81249   0.62777   0.07705   0.07765
C          C       0.39184   0.23582   0.10804   0.08678
C          C       0.76601   0.15615   0.10232   0.08496
C          C       0.84491   0.61064   0.10793   0.08511
C          C       0.26379   0.06985   0.27818  -0.17975
C          C       0.93257   0.19277   0.27677  -0.17910
C          C       0.80937   0.74052   0.27328  -0.17787
C          C       0.28369   0.05759   0.18324   0.06685
C          C       0.94527   0.22506   0.18107   0.06580
C          C       0.77715   0.72137   0.17651   0.06556
C          C       0.32120   0.09616   0.11760  -0.19015
C          C       0.90659   0.22463   0.11495  -0.18800
C          C       0.77735   0.68329   0.11191  -0.18830
C          C       0.38859   0.36310   0.37058   0.25147
C          C       0.63684   0.02270   0.35760   0.25100
C          C       0.97728   0.61326   0.37161   0.25141
C          C       0.35558   0.36865   0.46200  -0.43697
C          C       0.63111   0.98407   0.45006  -0.43618
C          C       0.01701   0.64679   0.46178  -0.43644
C          C       0.44065   0.38160   0.42533  -0.43262
C          C       0.61759   0.05549   0.40930  -0.43258
C          C       0.94425   0.56187   0.42701  -0.43187
C          C       0.39315   0.39564   0.26335  -0.43792
C          C       0.60492   0.99508   0.24879  -0.43768
C          C       0.00397   0.60779   0.26376  -0.43712
C          C       0.26584   0.00388   0.15113   0.25010
C          C      -0.00036   0.26051   0.14996   0.25275
C          C       0.74239   0.74091   0.14129   0.25385
C          C       0.30644   0.99131   0.18508  -0.43020
C          C       0.01347   0.31304   0.18883  -0.43125
C          C       0.68833   0.70126   0.16799  -0.43087
C          C       0.21772   0.96755   0.21463  -0.43233
C          C       0.03516   0.24605   0.21031  -0.43352
C          C       0.75466   0.78851   0.20752  -0.43338
C          C       0.25471   0.99612   0.01780  -0.43490
C          C       0.00712   0.26005   0.01588  -0.43589
C          C       0.74733   0.75296   0.00832  -0.43764
C          C       0.21892   0.12805   0.06254   0.29521
C          C       0.87004   0.09029   0.06342   0.29622
C          C       0.90981   0.78267   0.05381   0.29456
C          C       0.43589   0.23857   0.46074   0.27978
C          C       0.76282   0.19712   0.44677   0.28081
C          C       0.80271   0.56586   0.45019   0.27924
C          C       0.47574   0.25638   0.37530   0.02257
C          C       0.74550   0.21994   0.36064   0.02391
C          C       0.78062   0.52595   0.36476   0.02548
C          C       0.18366   0.10723   0.15814  -0.10529
C          C       0.89112   0.07564   0.15961  -0.10460
C          C       0.92477   0.81822   0.14887  -0.10418
C          C       0.16972   0.13212   0.23758   0.25688
C          C       0.86639   0.03724   0.24090   0.25511
C          C       0.96375   0.83188   0.23020   0.25431
C          C       0.13110   0.10818   0.31712  -0.26439
C          C       0.89097   0.02248   0.32008  -0.26376
C          C       0.97831   0.87016   0.31043  -0.26307
C          C       0.10330   0.05634   0.31905   0.10045
C          C       0.94313   0.04598   0.31985   0.09986
C          C       0.95396   0.89775   0.31180   0.10053
C          C       0.11968   0.03099   0.24643  -0.15171
C          C       0.96844   0.08714   0.24494  -0.15149
C          C       0.91232   0.88198   0.23661  -0.15140
C          C       0.15839   0.05557   0.16901  -0.07568
C          C       0.94328   0.10134   0.16793  -0.07681
C          C       0.89846   0.84378   0.15794  -0.07720
C          C       0.48794   0.22509   0.31323  -0.13419
C          C       0.77734   0.26596   0.30838  -0.13392
C          C       0.73596   0.51274   0.30388  -0.13500
C          C       0.53276   0.24435   0.25382  -0.09768
C          C       0.75810   0.29219   0.25080  -0.09935
C          C       0.71024   0.46767   0.24605  -0.09897
C          C       0.56595   0.29541   0.25221   0.00226
C          C       0.70655   0.27274   0.24188   0.00198
C          C       0.72905   0.43521   0.24506   0.00334
C          C       0.55105   0.32680   0.30280  -0.09597
C          C       0.67500   0.22425   0.28117  -0.09585
C          C       0.77644   0.45108   0.29378  -0.09860
C          C       0.50694   0.30766   0.36405  -0.10606
C          C       0.69410   0.19838   0.34006  -0.10386
C          C       0.80162   0.49552   0.35354  -0.10558
C          C       0.05250   0.02815   0.36839   0.07344
C          C       0.97151   0.02325   0.36869   0.07348
C          C       0.97631   0.94777   0.36408   0.07339
C          C       0.61857   0.31586   0.22064   0.37566
C          C       0.68559   0.30496   0.21583   0.37651
C          C       0.69659   0.38245   0.21765   0.37673
C          C       0.02354   0.05084   0.37493  -0.17478
C          C       0.94851   0.97174   0.36965  -0.17518
C          C       0.02812   0.97645   0.37017  -0.17392
C          C       0.32943   0.27051   0.89943  -0.19002
C          C       0.72767   0.05887   0.89103  -0.19024
C          C       0.94018   0.67044   0.89682  -0.18921
C          C       0.31286   0.22108   0.87162   0.00960
C          C       0.77762   0.09180   0.86587   0.01073
C          C       0.90740   0.68736   0.86692   0.00808
C          C       0.33371   0.20896   0.77365  -0.03347
C          C       0.79056   0.12456   0.76642  -0.03255
C          C       0.87443   0.66683   0.76729  -0.03426
C          C       0.37141   0.24892   0.70763   0.01894
C          C       0.75092   0.12276   0.69787   0.01851
C          C       0.87672   0.62926   0.70170   0.02057
C          C       0.38717   0.29777   0.73914  -0.17701
C          C       0.70155   0.09009   0.72777  -0.17756
C          C       0.90972   0.61317   0.73516  -0.17775
C          C       0.36670   0.30941   0.83501   0.06780
C          C       0.68908   0.05748   0.82342   0.06740
C          C       0.94192   0.63337   0.83244   0.06911
C          C       0.27606   0.18031   0.93694   0.08407
C          C       0.81811   0.09564   0.93451   0.08317
C          C       0.90382   0.72454   0.93080   0.08434
C          C       0.25998   0.13129   0.90739   0.08407
C          C       0.86759   0.12782   0.90539   0.08210
C          C       0.87102   0.74099   0.89876   0.08082
C          C       0.28013   0.11884   0.80915   0.01735
C          C       0.88082   0.15990   0.80530   0.01814
C          C       0.83809   0.72077   0.79949   0.01943
C          C       0.31767   0.15851   0.74318  -0.03180
C          C       0.84150   0.15822   0.73656  -0.03412
C          C       0.84003   0.68307   0.73444  -0.03387
C          C       0.33830   0.14593   0.64544   0.00629
C          C       0.85486   0.19092   0.63680   0.00773
C          C       0.80673   0.66252   0.63521   0.00802
C          C       0.37551   0.18691   0.58124   0.08010
C          C       0.81406   0.18774   0.57044   0.07866
C          C       0.81076   0.62562   0.57112   0.08151
C          C       0.39211   0.23614   0.61042   0.08462
C          C       0.76437   0.15588   0.59915   0.08582
C          C       0.84363   0.60908   0.60220   0.08352
C          C       0.26352   0.06982   0.77795  -0.17893
C          C       0.93038   0.19147   0.77506  -0.18117
C          C       0.80552   0.73739   0.76621  -0.18019
C          C       0.28389   0.05756   0.68388   0.06404
C          C       0.94338   0.22334   0.67849   0.06616
C          C       0.77232   0.71656   0.67166   0.06553
C          C       0.32168   0.09632   0.61917  -0.18887
C          C       0.90501   0.22284   0.61086  -0.18860
C          C       0.77325   0.67883   0.60759  -0.19072
C          C       0.38712   0.36323   0.87160   0.25240
C          C       0.63465   0.02413   0.85677   0.25236
C          C       0.97572   0.61310   0.87006   0.25157
C          C       0.35456   0.36816   0.96546  -0.43528
C          C       0.62804   0.98364   0.94442  -0.43593
C          C       0.01387   0.64566   0.96424  -0.43545
C          C       0.43987   0.38274   0.92306  -0.43149
C          C       0.61644   0.05683   0.91388  -0.43313
C          C       0.94282   0.56095   0.92154  -0.43146
C          C       0.38995   0.39516   0.76449  -0.43720
C          C       0.60223   0.99878   0.74696  -0.43739
C          C       0.00442   0.60973   0.76379  -0.43767
C          C       0.26632   0.00367   0.65276   0.25272
C          C       0.99786   0.25840   0.64804   0.25322
C          C       0.73504   0.73327   0.64013   0.25087
C          C       0.30647   0.99118   0.69183  -0.43062
C          C       0.01134   0.31151   0.67994  -0.43001
C          C       0.68345   0.69456   0.68620  -0.43041
C          C       0.21717   0.96748   0.71311  -0.43229
C          C       0.03316   0.24542   0.71512  -0.43196
C          C       0.74979   0.78378   0.69412  -0.43090
C          C       0.25739   0.99577   0.51867  -0.43688
C          C       0.00638   0.25563   0.51530  -0.43672
C          C       0.73252   0.73862   0.50542  -0.43535
C          C       0.21897   0.12802   0.56175   0.29502
C          C       0.87247   0.08976   0.56293   0.29603
C          C       0.91144   0.78208   0.56489   0.29551
C          C       0.43543   0.23803   0.95831   0.28084
C          C       0.76423   0.19790   0.95140   0.28112
C          C       0.80312   0.56724   0.95692   0.27964
C          C       0.47524   0.25559   0.87295   0.02199
C          C       0.74677   0.22107   0.86675   0.02333
C          C       0.78052   0.52709   0.87215   0.02274
C          C       0.18371   0.10713   0.65744  -0.10410
C          C       0.89318   0.07498   0.65947  -0.10553
C          C       0.92582   0.81701   0.66157  -0.10356
C          C       0.16992   0.13205   0.73728   0.25442
C          C       0.86812   0.03664   0.74073   0.25687
C          C       0.96355   0.82965   0.74619   0.25539
C          C       0.13182   0.10815   0.81810  -0.26338
C          C       0.89228   0.02168   0.82056  -0.26438
C          C       0.97813   0.86823   0.82574  -0.26540
C          C       0.10439   0.05628   0.82146   0.10112
C          C       0.94442   0.04529   0.82212   0.10087
C          C       0.95491   0.89691   0.82325   0.10067
C          C       0.12066   0.03096   0.74845  -0.15141
C          C       0.97001   0.08663   0.74785  -0.15165
C          C       0.91385   0.88164   0.74629  -0.14986
C          C       0.15874   0.05548   0.66931  -0.07644
C          C       0.94525   0.10075   0.66946  -0.07674
C          C       0.90007   0.84324   0.66831  -0.07663
C          C       0.48965   0.22425   0.81965  -0.13479
C          C       0.77840   0.26719   0.81477  -0.13445
C          C       0.73579   0.51383   0.81157  -0.13500
C          C       0.53452   0.24376   0.76060  -0.09795
C          C       0.75895   0.29350   0.75852  -0.09885
C          C       0.70985   0.46864   0.75409  -0.09841
C          C       0.56574   0.29503   0.75149   0.00125
C          C       0.70738   0.27402   0.75053   0.00299
C          C       0.72855   0.43606   0.75306   0.00282
C          C       0.54861   0.32603   0.79301  -0.09515
C          C       0.67600   0.22555   0.79014  -0.09514
C          C       0.77594   0.45195   0.80176  -0.09699
C          C       0.50428   0.30668   0.85348  -0.10291
C          C       0.69531   0.19962   0.84780  -0.10484
C          C       0.80130   0.49643   0.86114  -0.10564
C          C       0.05380   0.02795   0.87199   0.07427
C          C       0.97279   0.02290   0.87285   0.07459
C          C       0.97773   0.94742   0.87301   0.07444
C          C       0.61877   0.31627   0.72336   0.37604
C          C       0.68629   0.30607   0.72361   0.37433
C          C       0.69648   0.38330   0.72460   0.37515
C          C       0.02483   0.05061   0.87721  -0.17576
C          C       0.94995   0.97143   0.87815  -0.17734
C          C       0.02959   0.97624   0.87613  -0.17445
N          N       0.24903   0.17751   0.03592  -0.30590
N          N       0.82031   0.07160   0.03567  -0.30666
N          N       0.92866   0.75193   0.02961  -0.30633
N          N       0.22528   0.09967   0.48443  -0.38606
N          N       0.90147   0.12426   0.48541  -0.38447
N          N       0.87712   0.77677   0.48523  -0.38578
N          N       0.40378   0.18923   0.48563  -0.30504
N          N       0.81239   0.21372   0.47312  -0.30606
N          N       0.78504   0.59769   0.47396  -0.30536
N          N       0.42873   0.26697   0.03287  -0.37600
N          N       0.73488   0.16215   0.02584  -0.37660
N          N       0.83873   0.57356   0.03356  -0.37519
N          N       0.63579   0.28412   0.21571  -0.41484
N          N       0.71752   0.35387   0.21373  -0.41625
N          N       0.64736   0.36529   0.21825  -0.41511
N          N       0.24891   0.17752   0.53479  -0.30719
N          N       0.82281   0.07065   0.53423  -0.30538
N          N       0.93080   0.75196   0.53835  -0.30662
N          N       0.22485   0.09963   0.98468  -0.38561
N          N       0.89902   0.12403   0.98449  -0.38460
N          N       0.87514   0.77672   0.97455  -0.38357
N          N       0.40353   0.18869   0.98401  -0.30697
N          N       0.81383   0.21501   0.97832  -0.30720
N          N       0.78618   0.59971   0.98052  -0.30506
N          N       0.42919   0.26736   0.53586  -0.37507
N          N       0.73337   0.16206   0.52256  -0.37663
N          N       0.83828   0.57245   0.52729  -0.37455
N          N       0.63652   0.28493   0.72072  -0.41401
N          N       0.71786   0.35506   0.72272  -0.41425
N          N       0.64717   0.36577   0.72182  -0.41500
F          F       0.19371   0.18288   0.23345  -0.16257
F          F       0.81524   0.01094   0.23895  -0.16172
F          F       0.99101   0.80821   0.22775  -0.16121
F          F       0.19368   0.18285   0.73328  -0.16247
F          F       0.81699   0.01073   0.73884  -0.16160
F          F       0.98917   0.80427   0.74947  -0.16175

