data_crystal

_audit_creation_method 'AiiDA-DDEC plugin'

_cell_length_a        23.22070
_cell_length_b        23.51990
_cell_length_c         8.50032

_cell_angle_alpha     107.82425
_cell_angle_beta     98.84168
_cell_angle_gamma     90.54437

_symmetry_space_group_name_Hall 'P 1'
_symmetry_space_group_name_H-M  'P 1'

loop_
_symmetry_equiv_pos_as_xyz
 'x,y,z'

loop_
_atom_site_label
_atom_site_type_symbol
_atom_site_fract_x
_atom_site_fract_y
_atom_site_fract_z
_atom_site_charge
H          H       0.90693   0.24544   0.96109   0.09904
H          H       0.53887   0.30092   0.24066   0.10629
H          H       0.95224   0.32906   0.12362   0.10314
H          H       0.01951   0.40875   0.11139   0.10114
H          H       0.88075   0.47267   0.82638   0.11103
H          H       0.81413   0.39030   0.82659   0.09805
H          H       0.80468   0.08551   0.85068   0.11299
H          H       0.86519  -0.00077   0.86079   0.11623
H          H       0.00125   0.12057   0.20211   0.10295
H          H       0.94035   0.20628   0.19517   0.10798
H          H       0.65496   0.45176   0.37064   0.11220
H          H       0.50516   0.35802   0.02088   0.11009
H          H       0.49136   0.21403   0.06508   0.10756
H          H       0.42588   0.13179   0.07019   0.10108
H          H       0.56560   0.06986   0.35801   0.11160
H          H       0.63069   0.15355   0.35906   0.09698
H          H       0.01851   0.01734   0.10785   0.05891
H          H       0.03776   0.49779   0.04443   0.06074
H          H       0.40840   0.04235   0.13653   0.05946
H          H       0.66833   0.13769   0.15972   0.11195
H          H       0.76645   0.12541   0.09642   0.10368
H          H       0.77481   0.40490   0.02044   0.11076
H          H       0.67764   0.41809   0.09172   0.10108
H          H       0.26776   0.86862   0.30323   0.11844
H          H       0.16127   0.85724   0.22884   0.11617
H          H       0.17339   0.67872   0.90493   0.11855
H          H       0.27966   0.68920   0.98563   0.11949
H          H       0.99693   0.71396   0.80861   0.11764
H          H       0.94552   0.61622   0.76804   0.12512
H          H       0.08251   0.57869   0.11852   0.10800
H          H       0.13213   0.67575   0.16170   0.10666
H          H       0.12402   0.85371   0.93030   0.10724
H          H       0.06224   0.93792   0.91818   0.11099
H          H       0.92803   0.85916   0.09570   0.12540
H          H       0.99102   0.77658   0.11580   0.11542
H          H       0.30930   0.70060   0.29947   0.10419
H          H       0.35484   0.60438   0.28762   0.12223
H          H       0.49698   0.66102   0.09056   0.10726
H          H       0.44947   0.75463   0.09150   0.11753
H          H       0.44848   0.82909   0.38929   0.11714
H          H       0.50105   0.92492   0.41793   0.12763
H          H       0.36130   0.96282   0.07611   0.10701
H          H       0.31008   0.86777   0.04504   0.10460
H          H       0.53564   0.60586   0.29461   0.06162
H          H       0.45936   0.45522   0.04199   0.11471
H          H       0.60979   0.54824   0.39040   0.10333
H          H       0.90373   0.24812   0.45166   0.10158
H          H       0.53630   0.30081   0.73823   0.10700
H          H       0.94946   0.33168   0.61398   0.10368
H          H       0.01593   0.41272   0.60564   0.10102
H          H       0.87622   0.47734   0.32583   0.11093
H          H       0.80996   0.39444   0.32609   0.09809
H          H       0.80385   0.08812   0.34508   0.11200
H          H       0.86443   0.00241   0.36207   0.11635
H          H       0.99792   0.12486   0.71073   0.10299
H          H       0.93761   0.21026   0.69394   0.10864
H          H       0.65143   0.45400   0.87415   0.11068
H          H       0.50237   0.35853   0.52356   0.11180
H          H       0.49089   0.21201   0.55469   0.10451
H          H       0.42634   0.12835   0.55589   0.10067
H          H       0.56507   0.07039   0.85670   0.11169
H          H       0.62916   0.15539   0.86146   0.09677
H          H       0.01507   0.02095   0.62235   0.06067
H          H       0.03351   0.50223   0.54445   0.06088
H          H       0.41011   0.03873   0.61566   0.05675
H          H       0.66763   0.13977   0.66094   0.11212
H          H       0.76562   0.12801   0.59524   0.10604
H          H       0.77186   0.40855   0.52488   0.11048
H          H       0.67518   0.42098   0.59985   0.10064
H          H       0.26586   0.86979   0.80826   0.11935
H          H       0.15928   0.86039   0.73136   0.11765
H          H       0.16952   0.68285   0.40012   0.11859
H          H       0.27535   0.69164   0.47912   0.12018
H          H       0.99437   0.71807   0.30461   0.11609
H          H       0.94262   0.62067   0.26366   0.12452
H          H       0.07955   0.58201   0.61212   0.10823
H          H       0.12958   0.67903   0.65663   0.10838
H          H       0.12096   0.85838   0.43103   0.10810
H          H       0.05871   0.94292   0.42321   0.10957
H          H       0.92495   0.86192   0.59635   0.12549
H          H       0.98861   0.77950   0.61473   0.11705
H          H       0.30159   0.69766   0.77896   0.10541
H          H       0.34666   0.60129   0.76489   0.12241
H          H       0.49514   0.66292   0.60393   0.10931
H          H       0.44866   0.75707   0.60734   0.11752
H          H       0.44589   0.82948   0.88803   0.11700
H          H       0.49930   0.92448   0.91446   0.12445
H          H       0.35953   0.96325   0.57398   0.10678
H          H       0.30770   0.86865   0.54442   0.10521
H          H       0.53085   0.60653   0.79487   0.05981
H          H       0.45573   0.45513   0.54321   0.11473
H          H       0.60558   0.54975   0.89083   0.10321
C          C       0.66280   0.22916   0.15231   0.03183
C          C       0.69102   0.17446   0.13858  -0.12959
C          C       0.74597   0.16696   0.09933  -0.13225
C          C       0.77734   0.21212   0.06152   0.03211
C          C       0.75028   0.26715   0.06793   0.00178
C          C       0.69351   0.27591   0.11642   0.00325
C          C       0.78079   0.31412   0.03229   0.03556
C          C       0.75236   0.36845   0.04370  -0.12894
C          C       0.69805   0.37640   0.08682  -0.13519
C          C       0.66720   0.33153   0.12728   0.03105
C          C       0.83466   0.20501   0.02273   0.02247
C          C       0.86340   0.25203   0.99277  -0.18457
C          C       0.83886   0.30646  -0.00292   0.03056
C          C       0.50195   0.45378   0.11437  -0.09877
C          C       0.52765   0.39979   0.10325  -0.13684
C          C       0.50769   0.18344   0.13279  -0.13609
C          C       0.47088   0.13656   0.13416  -0.13275
C          C       0.49155   0.09373   0.21069   0.05621
C          C       0.55001   0.10121   0.29213  -0.09895
C          C       0.58649   0.14806   0.29073  -0.13887
C          C       0.97289   0.00468   0.04614   0.06599
C          C       0.99292   0.49712   0.97893   0.06306
C          C       0.50596   0.56582   0.23192   0.06342
C          C       0.45315   0.04331   0.20313   0.06262
C          C       0.28270   0.77992   0.14891   0.16230
C          C       0.24755   0.82658   0.21658  -0.16759
C          C       0.18696   0.82018   0.17425  -0.17350
C          C       0.15836   0.76691   0.06232   0.16556
C          C       0.19359   0.72053   0.99297  -0.16740
C          C       0.25400   0.72666   0.03707  -0.16581
C          C       0.06822   0.70213   0.98986   0.16406
C          C       0.06203   0.80900   0.02290   0.16054
C          C       0.37520   0.84106   0.21345   0.17032
C          C       0.37564   0.73428   0.19658   0.15796
C          C       0.01543   0.68449   0.87712  -0.17049
C          C       0.98661   0.62982   0.85389  -0.13763
C          C       0.61127   0.34042   0.17563   0.02311
C          C       0.58157   0.29336   0.20300  -0.18469
C          C       0.60512   0.23770   0.19132   0.03180
C          C       0.58354   0.39803   0.19327   0.08058
C          C       0.56695   0.18973   0.20797   0.07187
C          C       0.86800   0.15193   0.02454   0.08258
C          C       0.87726   0.35379   0.97907   0.07463
C          C       0.93658   0.35912   0.05358  -0.13448
C          C       0.97436   0.40461   0.04903  -0.13409
C          C       0.95424   0.44723   0.97147   0.05489
C          C       0.89568   0.44100   0.89173  -0.09724
C          C       0.85834   0.39514   0.89464  -0.14008
C          C       0.84727   0.09295   0.93012  -0.13430
C          C       0.88096   0.04473   0.93452  -0.10189
C          C       0.93685   0.05396   0.03322   0.04929
C          C       0.95817   0.11285   0.12492  -0.13044
C          C       0.92420   0.16092   0.12102  -0.13720
C          C       0.61231   0.45246   0.29783  -0.13470
C          C       0.58685   0.50658   0.30864  -0.13237
C          C       0.00966   0.58983   0.93810   0.18031
C          C       0.06385   0.60691   0.04600  -0.16108
C          C       0.09198   0.66204   0.07225  -0.17672
C          C       0.08175   0.85577   0.97066  -0.17650
C          C       0.04717   0.90335   0.96556  -0.17532
C          C       0.99076   0.90489   0.00803   0.19040
C          C       0.97098   0.85764   0.05907  -0.14588
C          C       0.00651   0.81155   0.07104  -0.16665
C          C       0.35026   0.69136   0.25318  -0.17333
C          C       0.37536   0.63759   0.24541  -0.14835
C          C       0.42936   0.62591   0.18961   0.19340
C          C       0.45624   0.67003   0.13955  -0.17340
C          C       0.42934   0.72284   0.13940  -0.16658
C          C       0.42964   0.85790   0.31895  -0.17550
C          C       0.45916   0.91170   0.33573  -0.14149
C          C       0.43579   0.95155   0.25116   0.17926
C          C       0.38043   0.93494   0.14919  -0.16025
C          C       0.35132   0.88087   0.12989  -0.18143
C          C       0.53139   0.50819   0.21710   0.05147
C          C       0.66132   0.23096   0.65261   0.03447
C          C       0.69004   0.17660   0.63919  -0.12917
C          C       0.74494   0.16955   0.59936  -0.13385
C          C       0.77557   0.21496   0.56032   0.03476
C          C       0.74825   0.26997   0.56831   0.00011
C          C       0.69167   0.27828   0.61832   0.00173
C          C       0.77833   0.31721   0.53250   0.03562
C          C       0.74989   0.37176   0.54797  -0.13039
C          C       0.69578   0.37927   0.59280  -0.13613
C          C       0.66504   0.33384   0.63116   0.03205
C          C       0.83251   0.20806   0.51855   0.02332
C          C       0.86056   0.25492   0.48613  -0.18728
C          C       0.83590   0.30955   0.49282   0.02976
C          C       0.49843   0.45416   0.61567  -0.10050
C          C       0.52456   0.40048   0.60584  -0.13719
C          C       0.50700   0.18229   0.62539  -0.13339
C          C       0.47076   0.13467   0.62452  -0.13311
C          C       0.49142   0.09268   0.70404   0.05664
C          C       0.54930   0.10150   0.79016  -0.10008
C          C       0.58532   0.14901   0.79052  -0.13823
C          C       0.96991   0.00864   0.55626   0.06575
C          C       0.98901   0.50152   0.47668   0.06166
C          C       0.50152   0.56623   0.73139   0.06383
C          C       0.45335   0.04154   0.69266   0.06667
C          C       0.27972   0.78185   0.64735   0.16038
C          C       0.24517   0.82857   0.71827  -0.16456
C          C       0.18457   0.82324   0.67509  -0.17539
C          C       0.15555   0.77073   0.56026   0.16860
C          C       0.19022   0.72428   0.48854  -0.16994
C          C       0.25052   0.72956   0.53214  -0.16455
C          C       0.06562   0.70592   0.48563   0.16562
C          C       0.05924   0.81294   0.52254   0.16063
C          C       0.37287   0.84151   0.71169   0.16823
C          C       0.37162   0.73455   0.69533   0.16211
C          C       0.01278   0.68852   0.37297  -0.17175
C          C       0.98378   0.63393   0.34941  -0.13572
C          C       0.60883   0.34192   0.67806   0.02351
C          C       0.57933   0.29408   0.70239  -0.18724
C          C       0.60344   0.23865   0.69025   0.03275
C          C       0.58054   0.39929   0.69623   0.07952
C          C       0.56575   0.18999   0.70529   0.07077
C          C       0.86613   0.15519   0.52149   0.08190
C          C       0.87384   0.35718   0.47409   0.07406
C          C       0.93335   0.36243   0.54674  -0.13345
C          C       0.97070   0.40852   0.54385  -0.13218
C          C       0.95021   0.45153   0.46824   0.05637
C          C       0.89149   0.44533   0.38967  -0.09948
C          C       0.85442   0.39917   0.39242  -0.14072
C          C       0.84590   0.09601   0.42736  -0.13499
C          C       0.87953   0.04811   0.43576  -0.10095
C          C       0.93448   0.05786   0.53952   0.04728
C          C       0.95542   0.11687   0.63038  -0.12790
C          C       0.92178   0.16469   0.62106  -0.13725
C          C       0.60880   0.45407   0.80042  -0.13417
C          C       0.58288   0.50786   0.80979  -0.13246
C          C       0.00665   0.59376   0.43325   0.18197
C          C       0.06105   0.61050   0.54024  -0.15951
C          C       0.08942   0.66557   0.56704  -0.17741
C          C       0.07876   0.86016   0.47187  -0.17568
C          C       0.04402   0.90783   0.46920  -0.17438
C          C       0.98768   0.90871   0.51191   0.19032
C          C       0.96795   0.86082   0.56026  -0.14616
C          C       0.00375   0.81483   0.57073  -0.16568
C          C       0.34397   0.68981   0.74049  -0.17585
C          C       0.36888   0.63587   0.73188  -0.14975
C          C       0.42466   0.62552   0.68691   0.19217
C          C       0.45329   0.67108   0.64681  -0.17222
C          C       0.42694   0.72415   0.64780  -0.16912
C          C       0.42741   0.85808   0.81660  -0.17551
C          C       0.45735   0.91158   0.83238  -0.13646
C          C       0.43434   0.95136   0.74717   0.17921
C          C       0.37885   0.93504   0.64573  -0.15724
C          C       0.34930   0.88130   0.62759  -0.18247
C          C       0.52743   0.50892   0.71758   0.05182
N          N       0.95271   0.94958   0.99562  -0.28253
N          N       0.47116   0.00231   0.26892  -0.30225
N          N       0.34481   0.78592   0.19111  -0.12353
N          N       0.09651   0.75936   0.02296  -0.12382
N          N       0.45145   0.57010   0.17973  -0.27749
N          N       0.97460   0.53859   0.91568  -0.30047
N          N       0.94969   0.95353   0.50135  -0.28288
N          N       0.46991   0.00218   0.76613  -0.30392
N          N       0.34182   0.78673   0.69031  -0.12130
N          N       0.09380   0.76330   0.52049  -0.12425
N          N       0.44697   0.56991   0.67781  -0.28093
N          N       0.97130   0.54276   0.41171  -0.30215

