data_crystal

_audit_creation_method 'AiiDA-DDEC plugin'

_cell_length_a        28.55477
_cell_length_b        23.71610
_cell_length_c         9.46288

_cell_angle_alpha     84.45159
_cell_angle_beta     84.05593
_cell_angle_gamma     89.84490

_symmetry_space_group_name_Hall 'P 1'
_symmetry_space_group_name_H-M  'P 1'

loop_
_symmetry_equiv_pos_as_xyz
 'x,y,z'

loop_
_atom_site_label
_atom_site_type_symbol
_atom_site_fract_x
_atom_site_fract_y
_atom_site_fract_z
_atom_site_charge
H          H       0.36649   0.06147   0.45395   0.06947
H          H       0.21057   0.86703   0.49791   0.11638
H          H       0.12964   0.85919   0.42969   0.10984
H          H       0.17753   0.73932   0.13400   0.11811
H          H       0.25778   0.74624   0.20411   0.11087
H          H       0.04060   0.78151   0.05098   0.11006
H          H       0.00224   0.69442   0.00123   0.10783
H          H       0.08641   0.59692   0.28656   0.12318
H          H       0.12404   0.68533   0.34095   0.12157
H          H       0.12121   0.90177   0.14520   0.12012
H          H       0.06368   0.97993   0.12551   0.11153
H          H       0.95328   0.86786   0.32628   0.12244
H          H       0.01025   0.78852   0.33891   0.11941
H          H       0.26395   0.69975   0.50728   0.12186
H          H       0.31447   0.61473   0.47653   0.12597
H          H       0.41949   0.71955   0.21835   0.11034
H          H       0.53430   0.62687   0.38518   0.10649
H          H       0.43335   0.52152   0.22700   0.11831
H          H       0.49598   0.45184   0.17222   0.10948
H          H       0.91104   0.41873   0.21675   0.10636
H          H       0.97925   0.48346   0.20057   0.11441
H          H       0.92615   0.58260   0.84777   0.10867
H          H       0.85791   0.51921   0.86360   0.11069
H          H       0.47285   0.21951   0.36113   0.10898
H          H       0.37049   0.80403   0.25493   0.12294
H          H       0.35402   0.80686   0.56735   0.11371
H          H       0.40840   0.88659   0.58575   0.12025
H          H       0.32415   0.99737   0.32993   0.10897
H          H       0.27194   0.91735   0.30259   0.11933
H          H       0.45770   0.66060   0.37524   0.06205
H          H       0.99293   0.61578   0.93459   0.06570
H          H       0.69719   0.41805   0.30884   0.09957
H          H       0.63396   0.48523   0.36616   0.10565
H          H       0.55509   0.42061   0.05094   0.10823
H          H       0.61658   0.35030   0.00673   0.10572
H          H       0.78696   0.30537   0.22910   0.10490
H          H       0.86031   0.35934   0.19526   0.10639
H          H       0.79338   0.49235   0.94644   0.10698
H          H       0.71993   0.43862   0.98572   0.10488
H          H       0.61794   0.31000   0.33277   0.10257
H          H       0.54576   0.25522   0.41084   0.11133
H          H       0.59283   0.12852   0.13231   0.11102
H          H       0.66494   0.18364   0.05431   0.10964
H          H       0.71206   0.18993   0.32090   0.10435
H          H       0.77890   0.12670   0.30774   0.10588
H          H       0.83089   0.21350   0.89954   0.10641
H          H       0.76496   0.27991   0.92232   0.09891
H          H       0.59722   0.55909   0.32675   0.10746
H          H       0.40371   0.15688   0.43378   0.10838
H          H       0.49122   0.01051   0.39174   0.11252
H          H       0.56087   0.07312   0.31891   0.10873
H          H       0.81982   0.06545   0.27082   0.10613
H          H       0.88710   0.00074   0.27332   0.11184
H          H       0.95970   0.10265   0.91858   0.10343
H          H       0.89406   0.16976   0.91937   0.10603
H          H       0.99584   0.01251   0.01356   0.06982
H          H       0.39991   0.02985   0.08394   0.06908
H          H       0.20945   0.87115   0.99559   0.11826
H          H       0.12876   0.86128   0.92567   0.11131
H          H       0.17903   0.73848   0.64068   0.11829
H          H       0.25918   0.74797   0.71205   0.11397
H          H       0.04489   0.78127   0.54346   0.10916
H          H       0.00683   0.69403   0.49240   0.10953
H          H       0.08617   0.59740   0.79331   0.12306
H          H       0.12337   0.68617   0.84838   0.12228
H          H       0.12091   0.90153   0.64199   0.12018
H          H       0.06286   0.97834   0.62044   0.11048
H          H       0.95339   0.86514   0.82358   0.12214
H          H       0.01148   0.78670   0.83791   0.11954
H          H       0.26326   0.70565   0.98529   0.12044
H          H       0.31654   0.62344   0.96133   0.12411
H          H       0.43076   0.73678   0.79607   0.10862
H          H       0.54157   0.63048   0.89612   0.10411
H          H       0.43358   0.52830   0.76112   0.11750
H          H       0.49317   0.45647   0.69655   0.10841
H          H       0.91237   0.41979   0.71262   0.10631
H          H       0.98124   0.48327   0.69618   0.11655
H          H       0.92692   0.58646   0.35216   0.11140
H          H       0.85775   0.52404   0.36856   0.11136
H          H       0.51841   0.17581   0.03942   0.09377
H          H       0.37784   0.81829   0.81738   0.11710
H          H       0.34092   0.84206   0.09289   0.10674
H          H       0.38641   0.93154   0.08655   0.11513
H          H       0.31572   0.00093   0.72970   0.11488
H          H       0.27099   0.91094   0.73503   0.11749
H          H       0.46565   0.66534   0.91174   0.05975
H          H       0.99384   0.61754   0.43619   0.06458
H          H       0.70087   0.42590   0.78981   0.09913
H          H       0.63891   0.49282   0.85008   0.10591
H          H       0.54973   0.41506   0.58195   0.10777
H          H       0.61087   0.34497   0.53280   0.10653
H          H       0.78650   0.31068   0.73679   0.10438
H          H       0.85980   0.36438   0.70235   0.10794
H          H       0.79434   0.49487   0.44230   0.10691
H          H       0.72090   0.44141   0.48153   0.10656
H          H       0.62869   0.30159   0.85655   0.09676
H          H       0.55580   0.24779   0.93478   0.10920
H          H       0.58866   0.14011   0.59630   0.10722
H          H       0.66013   0.19583   0.51671   0.10335
H          H       0.70586   0.18390   0.79157   0.10935
H          H       0.77153   0.11814   0.78210   0.10850
H          H       0.83974   0.22111   0.41898   0.10770
H          H       0.77497   0.28900   0.43670   0.10167
H          H       0.60124   0.56127   0.82590   0.10564
H          H       0.45152   0.11262   0.12523   0.09293
H          H       0.45038   0.05866   0.70459   0.10262
H          H       0.51743   0.12212   0.61706   0.09259
H          H       0.81220   0.05407   0.71732   0.10655
H          H       0.88040   0.99029   0.73216   0.11189
H          H       0.96916   0.11707   0.48288   0.10558
H          H       0.90230   0.18287   0.47836   0.10595
H          H       0.00150   0.02316   0.54659   0.06833
C          C       0.40133   0.04142   0.44406   0.05038
C          C       0.24012   0.80691   0.35663   0.15848
C          C       0.20354   0.83976   0.41642  -0.17047
C          C       0.15788   0.83504   0.37856  -0.17614
C          C       0.14743   0.79804   0.27826   0.15840
C          C       0.18440   0.76661   0.21549  -0.16493
C          C       0.22973   0.77092   0.25403  -0.17300
C          C       0.08449   0.74021   0.20123   0.16793
C          C       0.06957   0.83909   0.23902   0.16308
C          C       0.30962   0.85602   0.43135   0.16792
C          C       0.31418   0.75759   0.38428   0.15551
C          C       0.30044   0.91092   0.37010  -0.17782
C          C       0.44416   0.62087   0.34286   0.07095
C          C       0.99156   0.58371   0.02692   0.06549
C          C       0.70067   0.33800   0.13320  -0.02726
C          C       0.69374   0.28024   0.14413  -0.02748
C          C       0.64755   0.25153   0.18693   0.06313
C          C       0.73357   0.24034   0.12309   0.06578
C          C       0.74738   0.36674   0.10762   0.06780
C          C       0.66134   0.37844   0.15593   0.06783
C          C       0.66566   0.41862   0.25377  -0.13538
C          C       0.63028   0.45719   0.28362  -0.13169
C          C       0.58900   0.45852   0.21376   0.05188
C          C       0.58520   0.41920   0.11281  -0.13021
C          C       0.62043   0.37984   0.08551  -0.12503
C          C       0.78819   0.34624   0.16645  -0.12607
C          C       0.83011   0.37715   0.14609  -0.13165
C          C       0.83394   0.43040   0.06495   0.05773
C          C       0.79299   0.45096   0.00676  -0.13447
C          C       0.75109   0.42030   0.02830  -0.13026
C          C       0.61230   0.27085   0.28618  -0.12399
C          C       0.57117   0.23980   0.32989  -0.13486
C          C       0.56364   0.18696   0.27936   0.04982
C          C       0.59843   0.16791   0.17851  -0.14137
C          C       0.63904   0.19947   0.13313  -0.12534
C          C       0.73808   0.19514   0.22820  -0.13048
C          C       0.92864   0.04762   0.09914   0.05024
C          C       0.92930   0.09515  -0.00232  -0.12355
C          C       0.89170   0.13286  -0.00247  -0.13763
C          C       0.96790   0.00797   0.10343   0.06870
C          C       0.05098   0.74106   0.10193  -0.18013
C          C       0.02948   0.69161   0.07384  -0.16134
C          C       0.04135   0.63844   0.14089   0.18066
C          C       0.07700   0.63758   0.23379  -0.15293
C          C       0.09822   0.68725   0.26397  -0.17489
C          C       0.08421   0.89392   0.18171  -0.17295
C          C       0.05177   0.93786   0.17076  -0.16795
C          C       0.00366   0.92853   0.21768   0.19633
C          C       0.98998   0.87444   0.28423  -0.14580
C          C       0.02201   0.83052   0.29298  -0.17084
C          C       0.29837   0.70386   0.44583  -0.16436
C          C       0.32627   0.65629   0.42742  -0.15164
C          C       0.37116   0.66152   0.34994   0.20167
C          C       0.38617   0.71543   0.28557  -0.16684
C          C       0.35816   0.76257   0.30290  -0.16638
C          C       0.34751   0.84873   0.51598  -0.17718
C          C       0.37795   0.89305   0.52604  -0.14342
C          C       0.37069   0.94772   0.45881   0.18505
C          C       0.33015   0.95605   0.38563  -0.17075
C          C       0.77603   0.15860   0.21888  -0.13267
C          C       0.81121   0.16385   0.10208   0.05402
C          C       0.80582   0.20836   0.99465  -0.12906
C          C       0.76808   0.24563   0.00555  -0.12862
C          C       0.52201   0.15117   0.33068   0.06784
C          C       0.55155   0.49965   0.24620   0.06886
C          C       0.87757   0.46488   0.04579   0.05795
C          C       0.85140   0.12418   0.09695   0.06285
C          C       0.56142   0.54981   0.30647  -0.13956
C          C       0.52610   0.58837   0.33839  -0.12741
C          C       0.47950   0.57845   0.31101   0.04875
C          C       0.46932   0.52875   0.24957  -0.10194
C          C       0.50468   0.49023   0.21830  -0.13458
C          C       0.91408   0.45441   0.13494  -0.13701
C          C       0.95263   0.49065   0.12667  -0.10507
C          C       0.95671   0.53899   0.02693   0.05276
C          C       0.92233   0.54719   0.93044  -0.12219
C          C       0.88354   0.51132   0.94036  -0.14110
C          C       0.47721   0.17374   0.36753  -0.13174
C          C       0.43814   0.13839   0.40794  -0.12286
C          C       0.44245   0.07904   0.41417   0.05480
C          C       0.48771   0.05635   0.38369  -0.10322
C          C       0.52634   0.09156   0.34238  -0.13555
C          C       0.85061   0.07512   0.19499  -0.13654
C          C       0.88817   0.03819   0.19717  -0.10544
C          C       0.40739   0.04115   0.96805   0.07081
C          C       0.23982   0.80984   0.86006   0.15734
C          C       0.20268   0.84258   0.91673  -0.16224
C          C       0.15744   0.83696   0.87750  -0.17667
C          C       0.14804   0.79873   0.77908   0.15902
C          C       0.18542   0.76681   0.72036  -0.16743
C          C       0.23054   0.77237   0.75996  -0.17381
C          C       0.08606   0.74012   0.70096   0.16625
C          C       0.07003   0.83843   0.73820   0.16795
C          C       0.30419   0.86993   0.91287   0.16062
C          C       0.31662   0.76815   0.90224   0.16549
C          C       0.29521   0.91600   0.81433  -0.17352
C          C       0.44999   0.62846   0.87131   0.05727
C          C       0.99313   0.58479   0.52683   0.06929
C          C       0.70126   0.34057   0.63108  -0.03412
C          C       0.69582   0.28259   0.63773  -0.02474
C          C       0.64977   0.25355   0.67983   0.06159
C          C       0.73538   0.24244   0.61650   0.06375
C          C       0.74768   0.37030   0.60785   0.06999
C          C       0.66114   0.37977   0.65723   0.06697
C          C       0.66759   0.42339   0.74450  -0.13464
C          C       0.63255   0.46203   0.77631  -0.13559
C          C       0.58873   0.46043   0.72057   0.05331
C          C       0.58226   0.41706   0.63186  -0.13235
C          C       0.61732   0.37755   0.60192  -0.12280
C          C       0.78797   0.35079   0.67088  -0.12676
C          C       0.82995   0.38150   0.65033  -0.13256
C          C       0.83428   0.43390   0.56574   0.05575
C          C       0.79369   0.45391   0.50470  -0.13300
C          C       0.75178   0.42325   0.52597  -0.13335
C          C       0.61926   0.26691   0.79792  -0.13068
C          C       0.57820   0.23597   0.84244  -0.12745
C          C       0.56586   0.18924   0.77207   0.05745
C          C       0.59645   0.17603   0.65329  -0.13028
C          C       0.63722   0.20739   0.60835  -0.13000
C          C       0.73512   0.19217   0.70920  -0.12932
C          C       0.92958   0.04916   0.61013   0.05310
C          C       0.93478   0.10348   0.53580  -0.12854
C          C       0.89682   0.14044   0.53206  -0.13778
C          C       0.96958   0.01101   0.61844   0.06065
C          C       0.05408   0.74087   0.59745  -0.17340
C          C       0.03276   0.69145   0.56911  -0.16385
C          C       0.04347   0.63859   0.64021   0.18235
C          C       0.07776   0.63784   0.73744  -0.15053
C          C       0.09875   0.68759   0.76795  -0.17567
C          C       0.08403   0.89335   0.67968  -0.17137
C          C       0.05110   0.93651   0.66780  -0.16345
C          C       0.00304   0.92647   0.71528   0.19153
C          C       0.99003   0.87218   0.78163  -0.14131
C          C       0.02259   0.82888   0.79174  -0.17037
C          C       0.30008   0.71250   0.94510  -0.17614
C          C       0.32975   0.66634   0.93087  -0.14798
C          C       0.37766   0.67368   0.87884   0.19135
C          C       0.39440   0.72968   0.84128  -0.17013
C          C       0.36455   0.77577   0.85163  -0.17227
C          C       0.33536   0.87749   0.01489  -0.16916
C          C       0.36056   0.92783   0.01117  -0.16725
C          C       0.35465   0.97271   0.90528   0.18866
C          C       0.32022   0.96631   0.81112  -0.14883
C          C       0.77229   0.15438   0.70228  -0.13309
C          C       0.81172   0.16392   0.60028   0.04976
C          C       0.81117   0.21321   0.50396  -0.13293
C          C       0.77411   0.25136   0.51203  -0.12485
C          C       0.52372   0.15400   0.82182   0.06759
C          C       0.55228   0.50258   0.75666   0.06206
C          C       0.87817   0.46787   0.54613   0.05800
C          C       0.85179   0.12435   0.59885   0.06211
C          C       0.56462   0.55275   0.81335  -0.13849
C          C       0.53097   0.59233   0.85193  -0.13115
C          C       0.48321   0.58434   0.83375   0.05262
C          C       0.47043   0.53466   0.77591  -0.10687
C          C       0.50418   0.49476   0.73901  -0.13542
C          C       0.91524   0.45599   0.63244  -0.13509
C          C       0.95418   0.49157   0.62412  -0.10703
C          C       0.95804   0.54055   0.52668   0.05293
C          C       0.92311   0.55027   0.43264  -0.12479
C          C       0.88398   0.51500   0.44282  -0.14074
C          C       0.50341   0.15095   0.96453  -0.14125
C          C       0.46554   0.11486   0.01352  -0.12656
C          C       0.44584   0.08124   0.91996   0.04863
C          C       0.46543   0.08499   0.77636  -0.10773
C          C       0.50347   0.12036   0.72857  -0.13983
C          C       0.84666   0.06890   0.66870  -0.13530
C          C       0.88456   0.03252   0.67614  -0.10070
N          N       0.40693   0.98707   0.45468  -0.28573
N          N       0.28602   0.80698   0.40090  -0.13378
N          N       0.10106   0.79240   0.24017  -0.13182
N          N       0.39960   0.61393   0.33454  -0.28695
N          N       0.01673   0.58798   0.13209  -0.30305
N          N       0.96794   0.96854   0.20799  -0.29355
N          N       0.38472   0.01937   0.87455  -0.28943
N          N       0.28557   0.81500   0.90346  -0.13347
N          N       0.10209   0.79253   0.73943  -0.13144
N          N       0.40536   0.62590   0.85820  -0.28687
N          N       0.01873   0.58824   0.63125  -0.30619
N          N       0.96629   0.96519   0.70524  -0.30086

