data_crystal

_audit_creation_method 'AiiDA-DDEC plugin'

_cell_length_a        44.39787
_cell_length_b        44.40183
_cell_length_c         8.41127

_cell_angle_alpha     114.61146
_cell_angle_beta     65.03336
_cell_angle_gamma     120.49057

_symmetry_space_group_name_Hall 'P 1'
_symmetry_space_group_name_H-M  'P 1'

loop_
_symmetry_equiv_pos_as_xyz
 'x,y,z'

loop_
_atom_site_label
_atom_site_type_symbol
_atom_site_fract_x
_atom_site_fract_y
_atom_site_fract_z
_atom_site_charge
H          H       0.32289   0.57686   0.20945   0.11286
H          H       0.42615   0.74245   0.29970   0.11620
H          H       0.27147   0.68201   0.18533   0.11486
H          H       0.68481   0.42602   0.27049   0.11421
H          H       0.58659   0.25929   0.16053   0.11468
H          H       0.73678   0.32192   0.31741   0.11695
H          H       0.34934   0.53873   0.20902   0.10510
H          H       0.46288   0.80790   0.30607   0.10921
H          H       0.20770   0.65342   0.16591   0.11086
H          H       0.65411   0.46136   0.28107   0.10766
H          H       0.55017   0.19352   0.14739   0.10981
H          H       0.80062   0.35038   0.33806   0.10883
H          H       0.41284   0.67276   0.36900   0.11460
H          H       0.33972   0.74625   0.21283   0.11414
H          H       0.25624   0.58491   0.26093   0.11456
H          H       0.59322   0.32731   0.15473   0.11216
H          H       0.66872   0.25774   0.29544   0.11311
H          H       0.75215   0.41944   0.24588   0.11424
H          H       0.43859   0.63470   0.37837   0.11787
H          H       0.37692   0.81157   0.21194   0.11514
H          H       0.19138   0.55672   0.25227   0.11512
H          H       0.56237   0.36257   0.16350   0.11809
H          H       0.63186   0.19184   0.28789   0.11157
H          H       0.81668   0.44796   0.26180   0.11671
H          H       0.39621   0.53212   0.22785   0.06106
H          H       0.46829   0.86444   0.31466   0.06969
H          H       0.15099   0.59999   0.14335   0.07261
H          H       0.60332   0.46460   0.26853   0.06513
H          H       0.54252   0.13688   0.16817   0.07687
H          H       0.85804   0.40035   0.33796   0.07303
H          H       0.40609   0.49754   0.27320   0.12219
H          H       0.50915   0.90712   0.20706   0.12064
H          H       0.09479   0.59418   0.28404   0.12037
H          H       0.58639   0.47783   0.09651   0.11122
H          H       0.50481   0.09739   0.36756   0.12421
H          H       0.91615   0.41206   0.13702   0.12178
H          H       0.49576   0.59363   0.43654   0.12438
H          H       0.41876   0.91515   0.18550   0.12745
H          H       0.08759   0.49547   0.30010   0.12399
H          H       0.48677   0.41171   0.40571   0.12438
H          H       0.60703   0.08845   0.16738   0.12201
H          H       0.91067   0.51552   0.42091   0.12559
H          H       0.52437   0.55500   0.40512   0.10541
H          H       0.45546   0.98009   0.20139   0.11002
H          H       0.02354   0.46653   0.30205   0.10637
H          H       0.45791   0.44907   0.42944   0.09118
H          H       0.57501   0.02424   0.15603   0.09325
H          H       0.97348   0.54149   0.42816   0.10794
H          H       0.42149   0.40248   0.10656   0.38084
H          H       0.60175   0.97432   0.02931   0.38511
H          H       0.02215   0.59372   0.15247   0.39142
H          H       0.57426   0.55442   0.97217   0.36262
H          H       0.43278   0.02375   0.65871   0.38964
H          H       0.97185   0.38026   0.07390   0.37799
H          H       0.32104   0.57828   0.71076   0.11567
H          H       0.41162   0.74456   0.81841   0.11332
H          H       0.25952   0.67152   0.65842   0.11631
H          H       0.67809   0.42571   0.79543   0.11412
H          H       0.57249   0.25919   0.70616   0.11350
H          H       0.72728   0.31820   0.80756   0.11379
H          H       0.35353   0.54546   0.70784   0.10773
H          H       0.44510   0.81050   0.83189   0.10981
H          H       0.19575   0.63843   0.63415   0.10865
H          H       0.65339   0.46512   0.79310   0.11220
H          H       0.53649   0.19353   0.69585   0.10822
H          H       0.79011   0.34632   0.84016   0.10909
H          H       0.40639   0.67978   0.87044   0.11187
H          H       0.32649   0.74059   0.68273   0.11418
H          H       0.24859   0.58209   0.78883   0.11603
H          H       0.58702   0.33124   0.63581   0.11659
H          H       0.66313   0.25394   0.74260   0.11302
H          H       0.74442   0.41696   0.74146   0.11450
H          H       0.43747   0.64708   0.88368   0.11812
H          H       0.36123   0.80627   0.68260   0.11444
H          H       0.18358   0.54966   0.77696   0.11655
H          H       0.56253   0.37073   0.62980   0.11527
H          H       0.62718   0.18808   0.73321   0.11479
H          H       0.80806   0.44510   0.76851   0.11665
H          H       0.40385   0.54493   0.71916   0.06389
H          H       0.44797   0.86432   0.83285   0.06935
H          H       0.14176   0.58343   0.61593   0.06861
H          H       0.60685   0.47333   0.76630   0.08146
H          H       0.53107   0.13594   0.68895   0.07239
H          H       0.84730   0.39525   0.84586   0.07332
H          H       0.40890   0.51369   0.79619   0.11485
H          H       0.49248   0.90145   0.69342   0.12168
H          H       0.08922   0.58340   0.76066   0.11967
H          H       0.59341   0.49844   0.61547   0.11925
H          H       0.49908   0.09715   0.89302   0.11676
H          H       0.90489   0.40792   0.66209   0.11893
H          H       0.50227   0.60685   0.93374   0.12672
H          H       0.40564   0.91522   0.66939   0.12691
H          H       0.07395   0.48470   0.82063   0.12986
H          H       0.49294   0.41516   0.80996   0.12481
H          H       0.59625   0.07901   0.56493   0.12164
H          H       0.90116   0.51171   0.97116   0.12490
H          H       0.52810   0.56665   0.90418   0.11116
H          H       0.44596   0.97935   0.67741   0.10849
H          H       0.01052   0.45932   0.82458   0.10042
H          H       0.46039   0.45132   0.86907   0.11330
H          H       0.56185   0.01405   0.55585   0.11369
H          H       0.96563   0.53662   0.96124   0.10553
H          H       0.38663   0.43179   0.63731   0.38590
H          H       0.57595   0.99851   0.84470   0.37637
H          H       0.00945   0.57868   0.62932   0.37044
H          H       0.58564   0.57577   0.52358   0.38899
H          H       0.42771   0.01741   0.15875   0.39561
H          H       0.00935   0.41117   0.44098   0.38275
C          C       0.30508   0.65230   0.24113   0.37279
C          C       0.35133   0.64890   0.27682   0.36955
C          C       0.35822   0.70205   0.25965   0.37099
C          C       0.70361   0.35152   0.26011   0.37073
C          C       0.65712   0.35404   0.22276   0.37051
C          C       0.65151   0.30091   0.23305   0.37448
C          C       0.36629   0.62704   0.28852   0.00840
C          C       0.38064   0.74041   0.25672   0.00616
C          C       0.26769   0.63522   0.22497   0.00535
C          C       0.64064   0.37470   0.21394   0.00388
C          C       0.62973   0.26229   0.22869   0.00536
C          C       0.74081   0.36891   0.27918   0.00784
C          C       0.34816   0.58912   0.24584  -0.09678
C          C       0.41572   0.75784   0.28066  -0.10206
C          C       0.25380   0.65460   0.19915  -0.10201
C          C       0.65816   0.41253   0.24653  -0.09611
C          C       0.59606   0.24423   0.18866  -0.10032
C          C       0.75453   0.34940   0.30506  -0.10564
C          C       0.36302   0.56813   0.24599  -0.13322
C          C       0.43601   0.79428   0.28390  -0.12829
C          C       0.21815   0.63861   0.18958  -0.12913
C          C       0.64093   0.43196   0.25254  -0.13298
C          C       0.57593   0.20762   0.18187  -0.13079
C          C       0.79010   0.36530   0.31552  -0.13240
C          C       0.39574   0.58438   0.29396   0.06803
C          C       0.42225   0.81402   0.25921   0.05992
C          C       0.19518   0.60336   0.21143   0.06064
C          C       0.60610   0.41401   0.22516   0.06766
C          C       0.58884   0.18856   0.21715   0.06097
C          C       0.81276   0.40084   0.29845   0.05814
C          C       0.41345   0.62241   0.34056  -0.09954
C          C       0.38732   0.79630   0.23225  -0.09960
C          C       0.20928   0.58397   0.23619  -0.11329
C          C       0.58911   0.37599   0.18661  -0.10103
C          C       0.62250   0.20689   0.25892  -0.10587
C          C       0.79881   0.42050   0.27462  -0.11641
C          C       0.39913   0.64341   0.33579  -0.09622
C          C       0.36677   0.76011   0.23245  -0.10030
C          C       0.24514   0.59954   0.24078  -0.09559
C          C       0.60616   0.35661   0.18143  -0.09611
C          C       0.64273   0.24321   0.26353  -0.10384
C          C       0.76324   0.40479   0.26602  -0.09384
C          C       0.41027   0.56100   0.28952   0.07935
C          C       0.44455   0.85212   0.26237   0.08699
C          C       0.15745   0.58755   0.20703   0.07372
C          C       0.58776   0.43509   0.24273   0.07722
C          C       0.56762   0.15027   0.21084   0.07662
C          C       0.85013   0.41666   0.30663   0.07765
C          C       0.45047   0.54896   0.34111   0.20131
C          C       0.45990   0.90666   0.21083   0.20987
C          C       0.09702   0.54592   0.27490   0.21229
C          C       0.53896   0.44219   0.25051   0.20522
C          C       0.55852   0.09714   0.25374   0.21575
C          C       0.90862   0.46179   0.27972   0.20912
C          C       0.43296   0.51108   0.29474  -0.19393
C          C       0.49642   0.92321   0.21376  -0.19475
C          C       0.07987   0.56546   0.27730  -0.20201
C          C       0.55810   0.47139   0.17245  -0.18946
C          C       0.52054   0.08122   0.31519  -0.19725
C          C       0.92881   0.44058   0.20247  -0.18486
C          C       0.44902   0.48887   0.27303  -0.07170
C          C       0.51766   0.95990   0.21985  -0.06425
C          C       0.04344   0.54905   0.27735  -0.05994
C          C       0.54203   0.49245   0.18026  -0.07505
C          C       0.50184   0.04520   0.32621  -0.05959
C          C       0.96557   0.45548   0.19772  -0.07569
C          C       0.48420   0.50476   0.29994   0.05852
C          C       0.50237   0.98264   0.23242   0.04992
C          C       0.02232   0.51184   0.27380   0.05032
C          C       0.50462   0.48427   0.27466   0.05717
C          C       0.52082   0.02235   0.25777   0.05233
C          C       0.98367   0.49326   0.27296   0.05895
C          C       0.49925   0.54265   0.36753  -0.09945
C          C       0.46674   0.96462   0.21295  -0.10805
C          C       0.03938   0.49375   0.28564  -0.10611
C          C       0.48612   0.45512   0.35469  -0.12684
C          C       0.55894   0.03970   0.20474  -0.11969
C          C       0.96206   0.51338   0.35622  -0.12331
C          C       0.48328   0.56436   0.38665  -0.13542
C          C       0.44605   0.92796   0.20132  -0.14574
C          C       0.07545   0.51004   0.28724  -0.14068
C          C       0.50207   0.43397   0.34173  -0.13458
C          C       0.57753   0.07595   0.20665  -0.14067
C          C       0.92610   0.49879   0.35674  -0.13654
C          C       0.42467   0.44955   0.22892   0.57454
C          C       0.55626   0.96911   0.20171   0.58400
C          C       0.02965   0.57535   0.29670   0.59598
C          C       0.56828   0.52059   0.07627   0.56722
C          C       0.46350   0.03765   0.43972   0.57325
C          C       0.98281   0.42894   0.10362   0.57522
C          C       0.29542   0.64838   0.73936   0.37254
C          C       0.34405   0.64971   0.77617   0.36903
C          C       0.34677   0.70034   0.75249   0.37477
C          C       0.69499   0.34910   0.75269   0.36834
C          C       0.64853   0.35355   0.72532   0.37090
C          C       0.64190   0.29946   0.72979   0.37423
C          C       0.36186   0.63087   0.79020   0.01143
C          C       0.36709   0.73874   0.75004   0.00288
C          C       0.25781   0.62875   0.72490   0.00442
C          C       0.63402   0.37617   0.71690   0.00605
C          C       0.62004   0.26065   0.72499   0.00608
C          C       0.73208   0.36589   0.77264   0.00739
C          C       0.34654   0.59290   0.74746  -0.09965
C          C       0.40091   0.75835   0.78932  -0.09870
C          C       0.24272   0.64484   0.68337  -0.10452
C          C       0.65290   0.41404   0.75912  -0.09977
C          C       0.58412   0.24343   0.71273  -0.09718
C          C       0.74516   0.34589   0.79913  -0.10121
C          C       0.36467   0.57492   0.74648  -0.12744
C          C       0.41944   0.79495   0.79586  -0.12717
C          C       0.20713   0.62639   0.67125  -0.12987
C          C       0.63899   0.43579   0.75767  -0.13387
C          C       0.56424   0.20675   0.70654  -0.13048
C          C       0.78022   0.36163   0.81624  -0.13074
C          C       0.39760   0.59436   0.79538   0.06907
C          C       0.40527   0.81244   0.75738   0.06475
C          C       0.18548   0.59208   0.70646   0.06254
C          C       0.60621   0.42033   0.71145   0.06724
C          C       0.57961   0.18641   0.71305   0.05971
C          C       0.80320   0.39753   0.80516   0.05844
C          C       0.41229   0.63242   0.84385  -0.10136
C          C       0.37171   0.79258   0.71422  -0.10846
C          C       0.20060   0.57612   0.74935  -0.12058
C          C       0.58771   0.38234   0.66618  -0.10007
C          C       0.61559   0.20385   0.72633  -0.10099
C          C       0.79001   0.41748   0.77815  -0.11343
C          C       0.39491   0.65042   0.83804  -0.10046
C          C       0.35265   0.75625   0.71320  -0.10253
C          C       0.23649   0.59402   0.75595  -0.10288
C          C       0.60129   0.36056   0.66974  -0.09860
C          C       0.63543   0.24030   0.73182  -0.09987
C          C       0.75487   0.40194   0.76328  -0.09563
C          C       0.41509   0.57371   0.79038   0.08737
C          C       0.42647   0.85065   0.76332   0.07711
C          C       0.14799   0.57412   0.69634   0.07396
C          C       0.59152   0.44405   0.71915   0.07404
C          C       0.55835   0.14800   0.70778   0.07496
C          C       0.83990   0.41302   0.82286   0.07059
C          C       0.45480   0.56345   0.85133   0.20726
C          C       0.44480   0.90384   0.69528   0.20006
C          C       0.08749   0.53493   0.77366   0.20587
C          C       0.54537   0.45350   0.70530   0.21603
C          C       0.55023   0.09281   0.72415   0.20695
C          C       0.89835   0.45820   0.81373   0.20866
C          C       0.43604   0.52571   0.81152  -0.19250
C          C       0.48085   0.91848   0.69986  -0.19370
C          C       0.07271   0.55523   0.76333  -0.18679
C          C       0.56396   0.48744   0.66665  -0.19776
C          C       0.51329   0.07923   0.81760  -0.20262
C          C       0.91805   0.43638   0.72707  -0.19085
C          C       0.45029   0.50216   0.79217  -0.06814
C          C       0.50350   0.95518   0.71302  -0.06507
C          C       0.03632   0.54109   0.76626  -0.06339
C          C       0.54523   0.50778   0.69570  -0.07971
C          C       0.49448   0.04299   0.82500  -0.06703
C          C       0.95515   0.45069   0.71303  -0.07447
C          C       0.48607   0.51655   0.81079   0.05884
C          C       0.49057   0.97891   0.71592   0.05354
C          C       0.01304   0.50498   0.77900   0.04541
C          C       0.50682   0.49515   0.76800   0.04127
C          C       0.51142   0.01824   0.72916   0.05620
C          C       0.97389   0.48802   0.79014   0.05446
C          C       0.50270   0.55464   0.86968  -0.12955
C          C       0.45533   0.96280   0.69370  -0.12908
C          C       0.02799   0.48575   0.79836  -0.12669
C          C       0.48928   0.46141   0.80747  -0.12875
C          C       0.54831   0.03238   0.63477  -0.11182
C          C       0.95280   0.50870   0.88878  -0.10568
C          C       0.48808   0.57766   0.88937  -0.13076
C          C       0.43275   0.92655   0.68487  -0.14112
C          C       0.06398   0.50004   0.79792  -0.13999
C          C       0.50753   0.44089   0.77476  -0.13577
C          C       0.56759   0.06872   0.63657  -0.14646
C          C       0.91643   0.49479   0.89726  -0.14384
C          C       0.42352   0.46356   0.76003   0.56763
C          C       0.53966   0.96427   0.72809   0.57771
C          C       0.02621   0.56865   0.76766   0.58274
C          C       0.56955   0.54457   0.66594   0.58961
C          C       0.45691   0.03398   0.94739   0.58272
C          C       0.97083   0.42288   0.61981   0.58192
N          N       0.31734   0.63189   0.25822  -0.40528
N          N       0.37267   0.68412   0.28153  -0.41102
N          N       0.32462   0.68739   0.23923  -0.41079
N          N       0.69094   0.37174   0.24442  -0.40774
N          N       0.63665   0.31858   0.21314  -0.40663
N          N       0.68486   0.31617   0.25742  -0.41359
N          N       0.43767   0.57304   0.35102  -0.30028
N          N       0.43703   0.87022   0.20758  -0.30110
N          N       0.13336   0.56026   0.27399  -0.28613
N          N       0.55452   0.42029   0.23633  -0.27051
N          N       0.57887   0.13326   0.25080  -0.28049
N          N       0.87252   0.44834   0.28076  -0.27591
N          N       0.30984   0.63037   0.76021  -0.40950
N          N       0.36344   0.68483   0.77597  -0.40871
N          N       0.31288   0.68327   0.73265  -0.41570
N          N       0.68267   0.37011   0.74171  -0.40337
N          N       0.62701   0.31823   0.71822  -0.41149
N          N       0.67572   0.31367   0.74671  -0.41003
N          N       0.44158   0.58721   0.86140  -0.29674
N          N       0.42093   0.86760   0.69196  -0.29198
N          N       0.12358   0.54884   0.77687  -0.28427
N          N       0.56087   0.43096   0.68409  -0.27918
N          N       0.57131   0.12911   0.72109  -0.28280
N          N       0.86239   0.44573   0.81361  -0.27752
O          O       0.39149   0.43821   0.27946  -0.49927
O          O       0.56741   0.96979   0.31352  -0.45774
O          O       0.02386   0.59826   0.43902  -0.49633
O          O       0.60015   0.52449   0.00115  -0.50753
O          O       0.44413   0.05001   0.44134  -0.50331
O          O       0.01240   0.43256   0.99336  -0.47153
O          O       0.44149   0.42634   0.12333  -0.45775
O          O       0.57871   0.97247   0.03043  -0.48406
O          O       0.02677   0.57335   0.14022  -0.45257
O          O       0.55533   0.54118   0.06561  -0.47713
O          O       0.45320   0.01902   0.56037  -0.48485
O          O       0.95977   0.39677   0.15161  -0.48534
O          O       0.41514   0.44048   0.83221  -0.46507
O          O       0.55368   0.94260   0.66387  -0.48869
O          O       0.03723   0.60024   0.85830  -0.50870
O          O       0.59115   0.56755   0.75706  -0.49118
O          O       0.43461   0.04310   0.95161  -0.50753
O          O       0.95627   0.39374   0.65600  -0.49463
O          O       0.40543   0.45637   0.64160  -0.47240
O          O       0.55505   0.99826   0.83039  -0.47837
O          O       0.00585   0.55703   0.65584  -0.48907
O          O       0.56777   0.55101   0.52713  -0.45256
O          O       0.45016   0.01654   0.06612  -0.48008
O          O       0.00223   0.43140   0.48397  -0.46737

