data_crystal

_audit_creation_method 'AiiDA-DDEC plugin'

_cell_length_a        45.15369
_cell_length_b        45.22602
_cell_length_c         8.10332

_cell_angle_alpha     101.44363
_cell_angle_beta     109.63882
_cell_angle_gamma     120.46497

_symmetry_space_group_name_Hall 'P 1'
_symmetry_space_group_name_H-M  'P 1'

loop_
_symmetry_equiv_pos_as_xyz
 'x,y,z'

loop_
_atom_site_label
_atom_site_type_symbol
_atom_site_fract_x
_atom_site_fract_y
_atom_site_fract_z
_atom_site_charge
H          H       0.39772   0.68415   0.24628   0.11086
H          H       0.31920   0.71102   0.24999   0.11293
H          H       0.29382   0.60702   0.26941   0.10785
H          H       0.60576   0.31669   0.24524   0.11091
H          H       0.68371   0.28948   0.23586   0.11412
H          H       0.71177   0.39606   0.24283   0.11054
H          H       0.40147   0.64392   0.24130   0.26947
H          H       0.35643   0.75337   0.24264   0.27240
H          H       0.24732   0.60027   0.24609   0.27558
H          H       0.60229   0.35667   0.25728   0.26810
H          H       0.64698   0.24739   0.26359   0.27453
H          H       0.75654   0.40132   0.24595   0.26696
H          H       0.45249   0.64229   0.27397   0.11386
H          H       0.36233   0.80664   0.27701   0.11579
H          H       0.19861   0.55555   0.28090   0.11195
H          H       0.55324   0.35806   0.24941   0.11314
H          H       0.64385   0.19686   0.27470   0.11640
H          H       0.80671   0.44735   0.22465   0.11154
H          H       0.48002   0.60729   0.28209   0.11153
H          H       0.39725   0.87099   0.29244   0.11049
H          H       0.13558   0.52851   0.28401   0.10684
H          H       0.52306   0.39038   0.24344   0.11247
H          H       0.60843   0.13364   0.27020   0.10864
H          H       0.87017   0.47522   0.22702   0.11044
H          H       0.37755   0.51432   0.25863   0.12356
H          H       0.48150   0.86136   0.20675   0.12163
H          H       0.14167   0.62486   0.25085   0.12051
H          H       0.61800   0.48208   0.21918   0.12072
H          H       0.51395   0.13760   0.24453   0.11970
H          H       0.86498   0.37932   0.26192   0.11908
H          H       0.34944   0.54984   0.25071   0.13734
H          H       0.44622   0.79592   0.19179   0.13845
H          H       0.20605   0.65296   0.25388   0.13761
H          H       0.64906   0.44932   0.22611   0.13387
H          H       0.54972   0.20192   0.24700   0.13641
H          H       0.80036   0.35063   0.25634   0.13928
H          H       0.48337   0.56305   0.18188   0.06529
H          H       0.42203   0.91636   0.22153   0.06033
H          H       0.07343   0.50402   0.15989   0.06068
H          H       0.51365   0.43087   0.31542   0.06532
H          H       0.56953   0.07847   0.22655   0.05996
H          H       0.93362   0.50046   0.35923   0.06122
H          H       0.53550   0.55769   0.22433   0.10675
H          H       0.43498   0.97615   0.24803   0.10535
H          H       0.01249   0.45503   0.12460   0.10349
H          H       0.46211   0.43734   0.28443   0.10568
H          H       0.55827   0.02163   0.22074   0.10433
H          H       0.99427   0.54943   0.39097   0.10361
H          H       0.43666   0.47512   0.26348   0.11293
H          H       0.51823   0.95802   0.22110   0.11906
H          H       0.05448   0.57153   0.35856   0.11434
H          H       0.56112   0.52011   0.24697   0.11284
H          H       0.47571   0.04031   0.25449   0.11932
H          H       0.95225   0.43294   0.15672   0.11487
H          H       0.39301   0.68188   0.73695   0.11138
H          H       0.31661   0.71059   0.75452   0.11383
H          H       0.28996   0.60570   0.76867   0.10874
H          H       0.60220   0.31582   0.74555   0.11065
H          H       0.67882   0.28692   0.73110   0.11181
H          H       0.70927   0.39463   0.74979   0.11033
H          H       0.39774   0.64318   0.74013   0.26919
H          H       0.35183   0.75072   0.71579   0.27498
H          H       0.24372   0.59926   0.74732   0.26761
H          H       0.59892   0.35634   0.74978   0.27031
H          H       0.64272   0.24605   0.75766   0.27097
H          H       0.75292   0.39933   0.75191   0.26828
H          H       0.44941   0.64350   0.77299   0.11441
H          H       0.36067   0.80571   0.76476   0.11608
H          H       0.19576   0.55466   0.78709   0.11175
H          H       0.54972   0.35915   0.73115   0.11331
H          H       0.64114   0.19656   0.76970   0.11558
H          H       0.80206   0.44438   0.71989   0.11193
H          H       0.47879   0.61023   0.77918   0.11006
H          H       0.39782   0.87076   0.78951   0.10852
H          H       0.13293   0.52707   0.79057   0.10839
H          H       0.52208   0.39392   0.72559   0.11174
H          H       0.60710   0.13331   0.76640   0.10849
H          H       0.86524   0.47152   0.71821   0.10762
H          H       0.37833   0.51536   0.75837   0.12044
H          H       0.48273   0.86018   0.71993   0.12050
H          H       0.13779   0.62297   0.75909   0.11954
H          H       0.62334   0.48659   0.74077   0.12132
H          H       0.51064   0.13417   0.73528   0.11932
H          H       0.86055   0.37649   0.76464   0.12007
H          H       0.34833   0.54917   0.75277   0.13460
H          H       0.44555   0.79418   0.69841   0.13707
H          H       0.20198   0.65150   0.75931   0.13811
H          H       0.65169   0.45134   0.74675   0.13637
H          H       0.54532   0.19875   0.73950   0.13670
H          H       0.79593   0.34822   0.75960   0.13492
H          H       0.48638   0.56887   0.69459   0.06603
H          H       0.42380   0.91562   0.72292   0.06008
H          H       0.06935   0.50142   0.65702   0.06143
H          H       0.51866   0.43796   0.82838   0.06652
H          H       0.56856   0.07740   0.71594   0.06050
H          H       0.92883   0.49704   0.85698   0.05869
H          H       0.53806   0.56331   0.72836   0.10414
H          H       0.43638   0.97462   0.75186   0.10527
H          H       0.00824   0.45184   0.62622   0.10391
H          H       0.46622   0.44276   0.78873   0.10661
H          H       0.55871   0.02090   0.71395   0.10587
H          H       0.98916   0.54606   0.88368   0.10382
H          H       0.43946   0.47929   0.76410   0.11345
H          H       0.52006   0.95763   0.71934   0.11814
H          H       0.04915   0.56807   0.85137   0.11504
H          H       0.56442   0.52633   0.74912   0.11308
H          H       0.47568   0.03838   0.75246   0.11903
H          H       0.94840   0.42987   0.66044   0.11285
C          C       0.36183   0.70117   0.24402  -0.01678
C          C       0.30275   0.65892   0.25921  -0.03847
C          C       0.34550   0.64159   0.25470  -0.03329
C          C       0.64145   0.29961   0.24486  -0.01920
C          C       0.70160   0.34291   0.23912  -0.03399
C          C       0.65883   0.36027   0.24581  -0.03349
C          C       0.37064   0.67563   0.24880  -0.11047
C          C       0.32801   0.69263   0.25064  -0.12697
C          C       0.31140   0.63335   0.25850  -0.12832
C          C       0.63314   0.32560   0.24505  -0.11231
C          C       0.67547   0.30834   0.23970  -0.12526
C          C       0.69328   0.36882   0.24462  -0.13209
C          C       0.35244   0.61269   0.26522   0.45721
C          C       0.39021   0.73648   0.23290   0.46078
C          C       0.26894   0.65435   0.27823   0.46021
C          C       0.65202   0.38950   0.24122   0.45635
C          C       0.61200   0.26393   0.25041   0.46105
C          C       0.73651   0.34833   0.22800   0.45888
C          C       0.43586   0.61407   0.26969  -0.18837
C          C       0.38810   0.81838   0.25788  -0.18656
C          C       0.18586   0.57059   0.27280  -0.19897
C          C       0.56762   0.38540   0.24325  -0.19079
C          C       0.61519   0.18378   0.26737  -0.19286
C          C       0.81978   0.43262   0.23528  -0.19850
C          C       0.45124   0.59415   0.27307  -0.15821
C          C       0.40784   0.85466   0.26633  -0.16035
C          C       0.15014   0.55511   0.27128  -0.16140
C          C       0.55069   0.40383   0.24075  -0.15667
C          C       0.59498   0.14797   0.26398  -0.15330
C          C       0.85582   0.44859   0.23953  -0.16246
C          C       0.43006   0.55752   0.26714   0.18845
C          C       0.44199   0.87074   0.24783   0.18946
C          C       0.13368   0.57463   0.26288   0.19409
C          C       0.56914   0.43951   0.23523   0.18432
C          C       0.55771   0.13050   0.25349   0.19242
C          C       0.87269   0.42944   0.24944   0.18787
C          C       0.39344   0.54227   0.26009  -0.13485
C          C       0.45530   0.84893   0.22209  -0.12579
C          C       0.15453   0.60999   0.25722  -0.12538
C          C       0.60450   0.45508   0.22865  -0.12973
C          C       0.54233   0.15089   0.24907  -0.12447
C          C       0.85195   0.39404   0.25493  -0.12311
C          C       0.37762   0.56185   0.25551  -0.17041
C          C       0.43567   0.81241   0.21232  -0.17919
C          C       0.19025   0.62574   0.25880  -0.16286
C          C       0.62193   0.43697   0.23233  -0.16863
C          C       0.56214   0.18673   0.25128  -0.17615
C          C       0.81601   0.37789   0.25159  -0.16362
C          C       0.39896   0.59821   0.26073   0.22973
C          C       0.40177   0.79687   0.23129   0.22910
C          C       0.20621   0.60594   0.26625   0.22809
C          C       0.60345   0.40173   0.24041   0.23160
C          C       0.59897   0.20351   0.25935   0.23069
C          C       0.79948   0.39719   0.24121   0.23436
C          C       0.47004   0.54121   0.23093   0.06871
C          C       0.45105   0.92623   0.23615   0.05835
C          C       0.07207   0.52702   0.22097   0.06682
C          C       0.52759   0.45375   0.27319   0.06943
C          C       0.54361   0.07198   0.23920   0.06237
C          C       0.93472   0.47743   0.29513   0.06308
C          C       0.51969   0.53148   0.23923  -0.12921
C          C       0.46204   0.98628   0.24203  -0.13431
C          C       0.00838   0.47558   0.18393  -0.13489
C          C       0.47812   0.46371   0.27122  -0.12695
C          C       0.53162   0.01179   0.23039  -0.13238
C          C       0.99843   0.52891   0.33191  -0.13560
C          C       0.46375   0.48451   0.25954  -0.10583
C          C       0.50959   0.97650   0.22981  -0.10790
C          C       0.03188   0.54139   0.31532  -0.10288
C          C       0.53412   0.51078   0.25170  -0.10526
C          C       0.48445   0.02189   0.24579  -0.11096
C          C       0.97493   0.46309   0.20038  -0.10467
C          C       0.48437   0.51877   0.24334   0.05910
C          C       0.47441   0.96319   0.23595   0.05830
C          C       0.03735   0.51483   0.24059   0.06351
C          C       0.51337   0.47636   0.26628   0.05629
C          C       0.51964   0.03518   0.23957   0.05922
C          C       0.96948   0.48967   0.27538   0.06613
C          C       0.35792   0.69946   0.74061  -0.02273
C          C       0.29920   0.65780   0.75989  -0.03693
C          C       0.34133   0.63975   0.75059  -0.03776
C          C       0.63714   0.29784   0.74281  -0.01877
C          C       0.69777   0.34081   0.74055  -0.03712
C          C       0.65593   0.35920   0.74965  -0.03336
C          C       0.36626   0.67356   0.74278  -0.10798
C          C       0.32461   0.69155   0.75125  -0.12085
C          C       0.30756   0.63196   0.75725  -0.12831
C          C       0.62951   0.32435   0.74561  -0.11334
C          C       0.67111   0.30620   0.73837  -0.12355
C          C       0.69021   0.36725   0.74895  -0.13186
C          C       0.34852   0.61095   0.76036   0.45972
C          C       0.38709   0.73462   0.73075   0.46618
C          C       0.26554   0.65342   0.78104   0.46239
C          C       0.65042   0.38929   0.74759   0.45700
C          C       0.60728   0.26187   0.74460   0.46380
C          C       0.73221   0.34582   0.72684   0.46125
C          C       0.43362   0.61522   0.76887  -0.19275
C          C       0.38707   0.81738   0.75091  -0.18864
C          C       0.18265   0.56937   0.77734  -0.19832
C          C       0.56606   0.38723   0.73369  -0.18983
C          C       0.61247   0.18284   0.76256  -0.19193
C          C       0.81522   0.42972   0.73213  -0.20111
C          C       0.45008   0.59631   0.77151  -0.15304
C          C       0.40808   0.85405   0.76475  -0.15505
C          C       0.14689   0.55350   0.77599  -0.16215
C          C       0.55057   0.40704   0.73161  -0.15604
C          C       0.59302   0.14703   0.75939  -0.14996
C          C       0.85106   0.44531   0.73471  -0.16071
C          C       0.43001   0.55963   0.76581   0.18652
C          C       0.44294   0.86993   0.75237   0.18902
C          C       0.12991   0.57254   0.76713   0.19158
C          C       0.57147   0.44366   0.73746   0.18469
C          C       0.55561   0.12871   0.74778   0.18767
C          C       0.86802   0.42625   0.74775   0.19107
C          C       0.39339   0.54338   0.76006  -0.13022
C          C       0.45593   0.84775   0.73006  -0.12625
C          C       0.15065   0.60810   0.76289  -0.12518
C          C       0.60778   0.45880   0.74123  -0.13046
C          C       0.53926   0.14824   0.74198  -0.12365
C          C       0.84746   0.39115   0.75613  -0.12454
C          C       0.37648   0.56196   0.75641  -0.16789
C          C       0.43518   0.81092   0.71633  -0.17711
C          C       0.18636   0.62419   0.76362  -0.16460
C          C       0.62375   0.43933   0.74453  -0.16766
C          C       0.55840   0.18416   0.74463  -0.17379
C          C       0.81166   0.37531   0.75362  -0.16166
C          C       0.39666   0.59828   0.76043   0.23111
C          C       0.40028   0.79537   0.72647   0.22819
C          C       0.20265   0.60467   0.76982   0.23732
C          C       0.60283   0.40312   0.74126   0.23013
C          C       0.59538   0.20175   0.75403   0.23038
C          C       0.79523   0.39468   0.74184   0.23148
C          C       0.47209   0.54570   0.73452   0.06537
C          C       0.45294   0.92549   0.73932   0.05972
C          C       0.06789   0.52421   0.72045   0.06424
C          C       0.53170   0.45988   0.77933   0.06650
C          C       0.54289   0.07058   0.73219   0.06106
C          C       0.93002   0.47406   0.79317   0.06757
C          C       0.52237   0.53684   0.74128  -0.12797
C          C       0.46326   0.98497   0.74369  -0.13480
C          C       0.00408   0.47244   0.68406  -0.13599
C          C       0.48168   0.46898   0.77338  -0.12788
C          C       0.53231   0.01091   0.72622  -0.13190
C          C       0.99347   0.52549   0.82719  -0.13407
C          C       0.46662   0.48916   0.75997  -0.10565
C          C       0.51101   0.97578   0.72850  -0.10826
C          C       0.02689   0.53798   0.81044  -0.10503
C          C       0.53727   0.51651   0.75319  -0.10576
C          C       0.48492   0.02037   0.74458  -0.11141
C          C       0.97068   0.45996   0.70126  -0.10006
C          C       0.48686   0.52358   0.74465   0.05856
C          C       0.47609   0.96227   0.73756   0.05948
C          C       0.03284   0.51163   0.73854   0.06571
C          C       0.51706   0.48213   0.76900   0.06015
C          C       0.51984   0.03390   0.73544   0.05923
C          C       0.96483   0.48635   0.77371   0.06124
N          N       0.38558   0.62033   0.25938  -0.35800
N          N       0.38054   0.76083   0.22932  -0.36088
N          N       0.24168   0.61937   0.26384  -0.36853
N          N       0.61816   0.38075   0.24271  -0.35844
N          N       0.62117   0.23932   0.25964  -0.35895
N          N       0.76335   0.38307   0.23796  -0.36261
N          N       0.44296   0.53518   0.27373  -0.29732
N          N       0.46413   0.90662   0.25116  -0.28589
N          N       0.09924   0.56269   0.27093  -0.28920
N          N       0.55509   0.46091   0.23160  -0.30046
N          N       0.53444   0.09487   0.25100  -0.29071
N          N       0.90729   0.44167   0.24226  -0.28161
N          N       0.38223   0.61949   0.75820  -0.35694
N          N       0.37751   0.75885   0.71793  -0.36400
N          N       0.23816   0.61840   0.76688  -0.36754
N          N       0.61617   0.38096   0.74210  -0.36068
N          N       0.61697   0.23766   0.75517  -0.36045
N          N       0.75941   0.38084   0.74114  -0.36491
N          N       0.44383   0.53802   0.77056  -0.29746
N          N       0.46590   0.90584   0.75687  -0.28640
N          N       0.09522   0.56006   0.77402  -0.28454
N          N       0.55852   0.46603   0.73409  -0.29762
N          N       0.53313   0.09298   0.74575  -0.28823
N          N       0.90257   0.43832   0.74049  -0.28493
O          O       0.32982   0.58468   0.28352  -0.46420
O          O       0.41953   0.74230   0.22584  -0.45890
O          O       0.26687   0.68101   0.30675  -0.46122
O          O       0.67520   0.41858   0.23143  -0.46123
O          O       0.58204   0.25815   0.24916  -0.45988
O          O       0.73985   0.32254   0.21015  -0.45518
O          O       0.32581   0.58246   0.77557  -0.46666
O          O       0.41717   0.74045   0.73346  -0.46182
O          O       0.26372   0.68019   0.81081  -0.45750
O          O       0.67499   0.41869   0.74470  -0.46215
O          O       0.57694   0.25562   0.74024  -0.46101
O          O       0.73482   0.31951   0.70267  -0.46052

