data_crystal

_audit_creation_method 'AiiDA-DDEC plugin'

_cell_length_a        29.92481
_cell_length_b        29.91595
_cell_length_c         8.09094

_cell_angle_alpha     85.47446
_cell_angle_beta     118.08755
_cell_angle_gamma     119.87086

_symmetry_space_group_name_Hall 'P 1'
_symmetry_space_group_name_H-M  'P 1'

loop_
_symmetry_equiv_pos_as_xyz
 'x,y,z'

loop_
_atom_site_label
_atom_site_type_symbol
_atom_site_fract_x
_atom_site_fract_y
_atom_site_fract_z
_atom_site_charge
H          H       0.28066   0.57437   0.31565   0.11515
H          H       0.43376   0.69424   0.28393   0.10954
H          H       0.31466   0.73166   0.30006   0.11249
H          H       0.44065   0.63612   0.26972   0.26804
H          H       0.36013   0.79258   0.22971   0.27633
H          H       0.20604   0.56417   0.25843   0.27213
H          H       0.50546   0.63108   0.21955   0.11094
H          H       0.35992   0.86799   0.21231   0.11748
H          H       0.12464   0.48939   0.22215   0.11571
H          H       0.54885   0.58177   0.20040   0.10968
H          H       0.40575   0.96106   0.19085   0.11139
H          H       0.02654   0.44392   0.20282   0.10567
H          H       0.42078   0.44541   0.29193   0.12304
H          H       0.54794   0.95712   0.19510   0.11906
H          H       0.05085   0.59339   0.33433   0.12405
H          H       0.37571   0.49536   0.30786   0.13491
H          H       0.50172   0.86227   0.21903   0.13799
H          H       0.15098   0.63965   0.36052   0.13605
H          H       0.72394   0.42345   0.22816   0.10083
H          H       0.57454   0.29154   0.24100   0.09760
H          H       0.70035   0.27070   0.19418   0.10472
H          H       0.69291   0.46701   0.21786   0.10818
H          H       0.52167   0.21663   0.18132   0.10705
H          H       0.79682   0.31610   0.36781   0.10664
H          H       0.65195   0.52128   0.20416   0.10270
H          H       0.46592   0.12316   0.18398   0.10594
H          H       0.89627   0.35804   0.39899   0.09902
H          H       0.50684   0.39065   0.24274   0.11393
H          H       0.60638   0.10596   0.24177   0.11390
H          H       0.87546   0.48213   0.13910   0.11379
H          H       0.54655   0.33498   0.25345   0.10523
H          H       0.66520   0.20091   0.25327   0.10650
H          H       0.77439   0.43896   0.09884   0.10468
H          H       0.57755   0.53302   0.19304   0.06179
H          H       0.46056   0.04005   0.23393   0.06400
H          H       0.97509   0.42682   0.35452   0.05570
H          H       0.27649   0.58034   0.82799   0.11416
H          H       0.42656   0.69781   0.77623   0.11127
H          H       0.30851   0.73668   0.79210   0.10909
H          H       0.43264   0.63961   0.76279   0.26747
H          H       0.36165   0.80139   0.76190   0.27300
H          H       0.19928   0.56972   0.75240   0.27197
H          H       0.50379   0.63632   0.74577   0.11151
H          H       0.35917   0.87529   0.72266   0.11312
H          H       0.11833   0.49514   0.71712   0.11432
H          H       0.54802   0.58656   0.73665   0.11090
H          H       0.40504   0.96797   0.68982   0.11101
H          H       0.02065   0.44954   0.70027   0.10326
H          H       0.41024   0.44776   0.78108   0.12298
H          H       0.54065   0.95832   0.66707   0.12085
H          H       0.04591   0.59877   0.84075   0.12174
H          H       0.36364   0.49775   0.78231   0.13614
H          H       0.49505   0.86467   0.70388   0.13657
H          H       0.14630   0.64517   0.86914   0.13550
H          H       0.71761   0.42824   0.73735   0.10330
H          H       0.55912   0.29183   0.68474   0.10403
H          H       0.69708   0.27641   0.70883   0.10437
H          H       0.67117   0.46406   0.64351   0.10197
H          H       0.53740   0.22531   0.79673   0.10376
H          H       0.78967   0.31947   0.85486   0.10753
H          H       0.63216   0.51888   0.64741   0.10119
H          H       0.48668   0.13196   0.81228   0.09762
H          H       0.88788   0.36096   0.87938   0.09831
H          H       0.50864   0.39651   0.79423   0.11050
H          H       0.58742   0.10657   0.63079   0.11151
H          H       0.86893   0.48767   0.63859   0.11371
H          H       0.55003   0.34205   0.80279   0.10401
H          H       0.63748   0.19975   0.60885   0.09891
H          H       0.76863   0.44505   0.60513   0.10325
H          H       0.56281   0.53164   0.66637   0.05947
H          H       0.48069   0.04802   0.81953   0.06271
H          H       0.96754   0.43079   0.84541   0.05277
C          C       0.35733   0.62848   0.29767  -0.04300
C          C       0.37894   0.71835   0.28804  -0.02115
C          C       0.29218   0.65276   0.30928  -0.02865
C          C       0.30659   0.61508   0.30687  -0.13068
C          C       0.39356   0.68036   0.29101  -0.12676
C          C       0.32848   0.70430   0.29846  -0.10895
C          C       0.36703   0.58422   0.28879   0.46032
C          C       0.41935   0.77171   0.26845   0.46589
C          C       0.23981   0.64263   0.32370   0.46730
C          C       0.48697   0.59025   0.23625  -0.19427
C          C       0.40115   0.88741   0.20775  -0.19260
C          C       0.10900   0.51222   0.25091  -0.19298
C          C       0.51158   0.56234   0.22647  -0.16269
C          C       0.42736   0.94014   0.19688  -0.15038
C          C       0.05384   0.48670   0.23974  -0.17355
C          C       0.48758   0.50919   0.24538   0.18099
C          C       0.48163   0.96649   0.19648   0.18566
C          C       0.03193   0.51577   0.26886   0.19369
C          C       0.43845   0.48607   0.27442  -0.12894
C          C       0.50697   0.93713   0.20095  -0.12287
C          C       0.06778   0.57107   0.31134  -0.12923
C          C       0.41326   0.51363   0.28396  -0.15957
C          C       0.48137   0.88427   0.21341  -0.17923
C          C       0.12359   0.59703   0.32704  -0.17408
C          C       0.43766   0.56640   0.26459   0.23818
C          C       0.42815   0.85901   0.21882   0.22838
C          C       0.14433   0.56756   0.29376   0.22579
C          C       0.64481   0.36146   0.22711   0.06875
C          C       0.63279   0.27389   0.21701   0.06582
C          C       0.71910   0.34988   0.21638   0.07375
C          C       0.69758   0.38169   0.22181  -0.16737
C          C       0.61382   0.30757   0.22752  -0.17691
C          C       0.68541   0.29581   0.20907  -0.17493
C          C       0.65216   0.44928   0.22400  -0.13844
C          C       0.54145   0.19335   0.19622  -0.13181
C          C       0.81298   0.35161   0.31221  -0.13437
C          C       0.62890   0.48030   0.21534  -0.12682
C          C       0.50926   0.14005   0.19560  -0.12220
C          C       0.86936   0.37568   0.33246  -0.13653
C          C       0.57572   0.45951   0.21869   0.05669
C          C       0.53190   0.10764   0.20969   0.04929
C          C       0.89258   0.42315   0.27132   0.05513
C          C       0.54702   0.40647   0.23398  -0.09090
C          C       0.58861   0.13093   0.22907  -0.10224
C          C       0.85748   0.44573   0.18829  -0.08815
C          C       0.57000   0.37558   0.24032  -0.13372
C          C       0.62111   0.18433   0.23447  -0.12809
C          C       0.80134   0.42153   0.16778  -0.12792
C          C       0.62281   0.39572   0.23323   0.06570
C          C       0.59838   0.21715   0.21638   0.06953
C          C       0.77765   0.37395   0.22910   0.07499
C          C       0.55314   0.49309   0.21477   0.06972
C          C       0.49816   0.05203   0.21139   0.06179
C          C       0.95173   0.44822   0.29430   0.06709
C          C       0.35153   0.63318   0.79989  -0.04311
C          C       0.37299   0.72288   0.78456  -0.02641
C          C       0.28707   0.65826   0.81247  -0.02594
C          C       0.30169   0.62054   0.81356  -0.12670
C          C       0.38725   0.68459   0.78820  -0.12183
C          C       0.32284   0.70934   0.79643  -0.10604
C          C       0.36073   0.58862   0.79120   0.45186
C          C       0.41244   0.77533   0.75661   0.46178
C          C       0.23478   0.64819   0.82726   0.46434
C          C       0.48275   0.59466   0.75137  -0.19591
C          C       0.39950   0.89370   0.71299  -0.18980
C          C       0.10320   0.51786   0.75010  -0.19612
C          C       0.50785   0.56655   0.74724  -0.16288
C          C       0.42558   0.94599   0.69581  -0.16234
C          C       0.04818   0.49225   0.73985  -0.16397
C          C       0.48170   0.51274   0.75743   0.18522
C          C       0.47794   0.97046   0.68412   0.19277
C          C       0.02650   0.52120   0.77156   0.19474
C          C       0.42966   0.48897   0.77032  -0.12784
C          C       0.50142   0.93990   0.68277  -0.13394
C          C       0.06275   0.57649   0.81688  -0.12938
C          C       0.40351   0.51647   0.77102  -0.15971
C          C       0.47618   0.88769   0.70269  -0.17627
C          C       0.11865   0.60255   0.83302  -0.17331
C          C       0.43050   0.57007   0.76339   0.23305
C          C       0.42497   0.86425   0.71993   0.22292
C          C       0.13895   0.57318   0.79613   0.22783
C          C       0.63572   0.36430   0.71347   0.07271
C          C       0.62462   0.27732   0.70120   0.07119
C          C       0.71291   0.35478   0.71615   0.07455
C          C       0.69063   0.38597   0.72121  -0.18140
C          C       0.60276   0.30962   0.69883  -0.18161
C          C       0.67966   0.30071   0.70889  -0.17437
C          C       0.63684   0.44915   0.68258  -0.13558
C          C       0.54783   0.19963   0.75502  -0.13876
C          C       0.80574   0.35555   0.80212  -0.13193
C          C       0.61434   0.48013   0.68260  -0.12319
C          C       0.51931   0.14679   0.76548  -0.12400
C          C       0.86158   0.37935   0.81866  -0.13098
C          C       0.56728   0.46144   0.71979   0.05282
C          C       0.53341   0.11261   0.72186   0.04777
C          C       0.88528   0.42754   0.76218   0.05827
C          C       0.54429   0.41078   0.76169  -0.09717
C          C       0.57686   0.13304   0.66665  -0.10940
C          C       0.85068   0.45074   0.68464  -0.09673
C          C       0.56738   0.38025   0.76382  -0.13567
C          C       0.60528   0.18572   0.65686  -0.13356
C          C       0.79492   0.42678   0.66757  -0.13037
C          C       0.61355   0.39814   0.72149   0.06465
C          C       0.59186   0.22057   0.70205   0.06529
C          C       0.77121   0.37883   0.72704   0.07330
C          C       0.54392   0.49453   0.71378   0.07346
C          C       0.50420   0.05773   0.73846   0.07332
C          C       0.94474   0.45273   0.78761   0.07328
N          N       0.41678   0.59812   0.27765  -0.36588
N          N       0.39951   0.80615   0.23522  -0.36282
N          N       0.19875   0.59036   0.29691  -0.36742
N          N       0.50832   0.47670   0.24053  -0.29877
N          N       0.51297   0.01979   0.19075  -0.29662
N          N       0.97592   0.49346   0.25082  -0.28082
N          N       0.40917   0.60177   0.77326  -0.36307
N          N       0.39681   0.81212   0.74397  -0.35858
N          N       0.19320   0.59589   0.79793  -0.36636
N          N       0.50337   0.48049   0.75959  -0.30211
N          N       0.50726   0.02289   0.66658  -0.29327
N          N       0.97016   0.49884   0.75140  -0.28341
O          O       0.33199   0.53905   0.29069  -0.45342
O          O       0.46598   0.78235   0.27652  -0.46146
O          O       0.23542   0.67948   0.35764  -0.46592
O          O       0.32619   0.54382   0.79821  -0.45484
O          O       0.45493   0.78325   0.74104  -0.46472
O          O       0.23079   0.68507   0.86375  -0.46956

