data_crystal

_audit_creation_method 'AiiDA-DDEC plugin'

_cell_length_a        36.60302
_cell_length_b        36.51151
_cell_length_c         8.41014

_cell_angle_alpha     89.02365
_cell_angle_beta     90.61919
_cell_angle_gamma     120.05341

_symmetry_space_group_name_Hall 'P 1'
_symmetry_space_group_name_H-M  'P 1'

loop_
_symmetry_equiv_pos_as_xyz
 'x,y,z'

loop_
_atom_site_label
_atom_site_type_symbol
_atom_site_fract_x
_atom_site_fract_y
_atom_site_fract_z
_atom_site_charge
H          H       0.22931   0.19073   0.06856   0.06040
H          H       0.80358   0.03908   0.14258   0.06544
H          H       0.96696   0.77459   0.06033   0.06126
H          H       0.21432   0.20344   0.38922   0.07853
H          H       0.79443   0.00631   0.45865   0.07977
H          H       0.99051   0.78824   0.39834   0.07849
H          H       0.19996   0.23044   0.15733   0.06082
H          H       0.75866   0.96826   0.20931   0.06628
H          H       0.03770   0.80494   0.14009   0.06258
H          H       0.25343   0.27091   0.13835   0.08848
H          H       0.72088   0.98269   0.15289   0.08564
H          H       0.02194   0.75058   0.13571   0.08432
H          H       0.20435   0.29783   0.15240   0.07505
H          H       0.70069   0.90318   0.16180   0.07009
H          H       0.09818   0.79858   0.14095   0.06980
H          H       0.18269   0.30295   0.47315   0.06948
H          H       0.69166   0.87668   0.44801   0.07024
H          H       0.11925   0.80813   0.39838   0.06902
H          H       0.25213   0.35346   0.36001   0.06093
H          H       0.64538   0.90354   0.34878   0.06703
H          H       0.07978   0.72893   0.35240   0.07730
H          H       0.24218   0.37027   0.03945   0.05738
H          H       0.63157   0.86830   0.02541   0.05663
H          H       0.13301   0.76036   0.03760   0.05813
H          H       0.37013   0.25124   0.04973   0.04917
H          H       0.74572   0.12141   0.05593   0.04807
H          H       0.88731   0.63314   0.04476   0.04820
H          H       0.34995   0.24684   0.35642   0.06264
H          H       0.75655   0.10303   0.37612   0.06108
H          H       0.89971   0.65295   0.34753   0.06301
H          H       0.29760   0.20889   0.09559   0.05592
H          H       0.78841   0.09306   0.13392   0.05704
H          H       0.91959   0.70560   0.09910   0.05717
H          H       0.30729   0.26032   0.13913   0.08781
H          H       0.73643   0.04992   0.16177   0.08451
H          H       0.96148   0.69501   0.12438   0.08692
H          H       0.40817   0.31299   0.25514   0.06721
H          H       0.69291   0.09825   0.25790   0.06454
H          H       0.90700   0.59307   0.23603   0.06541
H          H       0.43163   0.31785   0.44765   0.05612
H          H       0.68468   0.11497   0.44629   0.05598
H          H       0.88993   0.57072   0.43087   0.05776
H          H       0.45867   0.38629   0.29510   0.07238
H          H       0.61964   0.07739   0.28155   0.07227
H          H       0.92938   0.54256   0.27881   0.07177
H          H       0.40737   0.38002   0.29781   0.08256
H          H       0.62403   0.03120   0.28248   0.08259
H          H       0.97536   0.59340   0.28515   0.08110
H          H       0.31862   0.39276   0.22657   0.06426
H          H       0.58600   0.90455   0.14227   0.06073
H          H       0.08869   0.67933   0.18815   0.06094
H          H       0.31654   0.41465   0.49667   0.05805
H          H       0.58474   0.90316   0.43981   0.06376
H          H       0.10379   0.68550   0.59100   0.05928
H          H       0.35976   0.36339   0.07364   0.09254
H          H       0.63667   0.99084   0.08503   0.09408
H          H       0.00739   0.64422   0.11298   0.09030
H          H       0.36891   0.39703   0.42028   0.08030
H          H       0.60396   0.97463   0.40609   0.08124
H          H       0.04658   0.63922   0.40602   0.07667
H          H       0.55188   0.52321   0.45392   0.10809
H          H       0.47898   0.03150   0.42831   0.10660
H          H       0.97177   0.44711   0.45107   0.10612
H          H       0.50862   0.55447   0.02975   0.10708
H          H       0.44580   0.95373   0.01521   0.10638
H          H       0.04317   0.48987   0.02381   0.10778
H          H       0.69244   0.41277   0.33453   0.11275
H          H       0.59118   0.28315   0.32196   0.11295
H          H       0.72046   0.31148   0.31867   0.11273
H          H       0.57388   0.33797   0.33360   0.06408
H          H       0.66556   0.23914   0.32172   0.06454
H          H       0.76504   0.42963   0.34224   0.06371
H          H       0.49447   0.38445   0.09659   0.10310
H          H       0.61589   0.10858   0.07052   0.10170
H          H       0.88941   0.50600   0.08673   0.10282
H          H       0.54429   0.35937   0.04783   0.10369
H          H       0.63986   0.18382   0.02465   0.10496
H          H       0.81398   0.45595   0.04440   0.10432
H          H       0.61840   0.46971   0.22556   0.12312
H          H       0.53530   0.15377   0.19893   0.12063
H          H       0.84926   0.38257   0.21605   0.12011
H          H       0.56618   0.49257   0.27081   0.10745
H          H       0.51128   0.07785   0.24372   0.10533
H          H       0.92515   0.43317   0.26343   0.10523
H          H       0.47395   0.56114   0.26652   0.10223
H          H       0.43504   0.91140   0.24815   0.10263
H          H       0.08464   0.52341   0.26432   0.10165
H          H       0.43561   0.59904   0.32609   0.10896
H          H       0.39517   0.83463   0.30868   0.11138
H          H       0.16112   0.56056   0.32762   0.11094
H          H       0.33416   0.51497   0.01965   0.11780
H          H       0.48384   0.81741   0.03540   0.11847
H          H       0.18039   0.66337   0.01685   0.11858
H          H       0.37516   0.47959   0.46847   0.10831
H          H       0.51854   0.89612   0.44236   0.10774
H          H       0.10488   0.62513   0.46268   0.10717
H          H       0.40981   0.70446   0.23090   0.11111
H          H       0.29145   0.70307   0.23024   0.11071
H          H       0.29269   0.58574   0.23589   0.11051
H          H       0.41181   0.63995   0.21751   0.06632
H          H       0.35584   0.76961   0.20557   0.06674
H          H       0.22616   0.58372   0.21941   0.06548
H          H       0.23141   0.19241   0.57373   0.06170
H          H       0.79604   0.02913   0.64612   0.06747
H          H       0.96656   0.76903   0.58794   0.06463
H          H       0.21314   0.20327   0.88517   0.07889
H          H       0.80093   0.01480   0.95755   0.08139
H          H       0.99414   0.79100   0.87560   0.07891
H          H       0.19901   0.23019   0.65374   0.06109
H          H       0.75021   0.95773   0.70045   0.06657
H          H       0.03980   0.80129   0.64232   0.06416
H          H       0.25270   0.27067   0.64626   0.08885
H          H       0.71370   0.97443   0.65029   0.08497
H          H       0.02382   0.74688   0.63300   0.08641
H          H       0.20609   0.29899   0.65430   0.07400
H          H       0.69064   0.89375   0.64346   0.06650
H          H       0.10357   0.79773   0.60141   0.07460
H          H       0.18132   0.30185   0.97007   0.07087
H          H       0.70326   0.88384   0.97197   0.07209
H          H       0.12384   0.81909   0.95519   0.07039
H          H       0.25211   0.35147   0.85906   0.06228
H          H       0.65278   0.90347   0.85795   0.06248
H          H       0.10084   0.74640   0.86241   0.06936
H          H       0.24302   0.37154   0.54366   0.05786
H          H       0.62133   0.86393   0.50231   0.05714
H          H       0.12578   0.74856   0.47597   0.05504
H          H       0.37231   0.25587   0.55073   0.04633
H          H       0.74410   0.11630   0.56260   0.04637
H          H       0.88831   0.62717   0.53707   0.04581
H          H       0.34872   0.24518   0.85427   0.06153
H          H       0.75853   0.10809   0.87025   0.06256
H          H       0.89902   0.65617   0.85043   0.06037
H          H       0.30014   0.21311   0.60229   0.05600
H          H       0.78439   0.08520   0.63779   0.05901
H          H       0.91750   0.69814   0.60693   0.05684
H          H       0.30934   0.26480   0.63765   0.08647
H          H       0.73172   0.04355   0.66493   0.08506
H          H       0.96110   0.68977   0.62648   0.08803
H          H       0.40586   0.30984   0.76047   0.06553
H          H       0.69254   0.09991   0.75609   0.06330
H          H       0.90354   0.59663   0.74685   0.06303
H          H       0.43117   0.31637   0.94997   0.05688
H          H       0.68319   0.11552   0.94491   0.05661
H          H       0.88725   0.57325   0.94063   0.05641
H          H       0.45583   0.38358   0.79348   0.07436
H          H       0.61821   0.07381   0.78152   0.07506
H          H       0.92508   0.54461   0.78334   0.07446
H          H       0.40413   0.37648   0.79900   0.08065
H          H       0.62671   0.03010   0.78458   0.08183
H          H       0.97107   0.59553   0.78100   0.08524
H          H       0.31918   0.40216   0.70015   0.06432
H          H       0.57963   0.90509   0.64877   0.06456
H          H       0.06671   0.67115   0.74647   0.07347
H          H       0.31306   0.41340   0.04095   0.06065
H          H       0.59242   0.90535   0.93263   0.06419
H          H       0.09700   0.68444   0.97998   0.06164
H          H       0.35987   0.36436   0.59191   0.09110
H          H       0.63469   0.98980   0.58358   0.09129
H          H       0.00762   0.63908   0.53338   0.08907
H          H       0.36361   0.39814   0.91459   0.07946
H          H       0.60578   0.97485   0.90831   0.08110
H          H       0.02335   0.63578   0.92543   0.08331
H          H       0.55023   0.52089   0.95807   0.10700
H          H       0.47992   0.02874   0.93289   0.10781
H          H       0.96771   0.44917   0.95072   0.10607
H          H       0.51065   0.55635   0.53304   0.10903
H          H       0.44464   0.95619   0.50768   0.10711
H          H       0.04650   0.48853   0.53095   0.10726
H          H       0.68633   0.40877   0.86130   0.11258
H          H       0.58820   0.27803   0.84124   0.11311
H          H       0.71879   0.31064   0.84127   0.11256
H          H       0.56912   0.33278   0.86241   0.06543
H          H       0.66535   0.23764   0.84977   0.06445
H          H       0.75952   0.42828   0.87018   0.06592
H          H       0.49683   0.38551   0.58375   0.10550
H          H       0.61529   0.11152   0.56486   0.10343
H          H       0.89154   0.50340   0.57694   0.10345
H          H       0.54755   0.36165   0.53139   0.10720
H          H       0.64022   0.18690   0.51394   0.10701
H          H       0.81649   0.45411   0.52553   0.10668
H          H       0.61385   0.46358   0.72367   0.12126
H          H       0.53587   0.15071   0.70422   0.12109
H          H       0.84498   0.38447   0.72790   0.12077
H          H       0.56263   0.48803   0.76785   0.10560
H          H       0.51243   0.07479   0.74651   0.10526
H          H       0.92111   0.43592   0.76448   0.10665
H          H       0.47732   0.56391   0.77094   0.10474
H          H       0.43840   0.91449   0.76109   0.10478
H          H       0.08849   0.52234   0.76766   0.10323
H          H       0.43947   0.60217   0.83160   0.11115
H          H       0.40108   0.83821   0.83182   0.10912
H          H       0.16470   0.56099   0.83203   0.10998
H          H       0.33664   0.51743   0.53228   0.11868
H          H       0.48185   0.81966   0.51642   0.11824
H          H       0.18122   0.66451   0.53098   0.11797
H          H       0.37347   0.47780   0.95629   0.10769
H          H       0.52255   0.89424   0.96724   0.10762
H          H       0.10369   0.62534   0.94986   0.10759
H          H       0.41299   0.70768   0.74362   0.11108
H          H       0.29427   0.70559   0.73988   0.11024
H          H       0.29626   0.58864   0.74171   0.11039
H          H       0.41527   0.64340   0.72023   0.06647
H          H       0.35846   0.77251   0.72824   0.06621
H          H       0.22976   0.58602   0.72343   0.06560
C          C       0.23494   0.21685   0.98602  -0.01080
C          C       0.78246   0.02105   0.04381  -0.00965
C          C       0.98666   0.76901   0.97678  -0.01027
C          C       0.22573   0.24777   0.07114  -0.02507
C          C       0.74707   0.97920   0.10834  -0.02842
C          C       0.02712   0.77769   0.06065  -0.02755
C          C       0.20935   0.30262   0.02311  -0.02096
C          C       0.69891   0.90786   0.03294  -0.01408
C          C       0.09699   0.79172   0.01355  -0.01271
C          C       0.24771   0.34579   0.98860  -0.02554
C          C       0.65543   0.90078   0.98799  -0.02895
C          C       0.10193   0.75324   0.99008  -0.02856
C          C       0.35193   0.26224   0.47046  -0.01115
C          C       0.73877   0.08950   0.48731  -0.01180
C          C       0.91421   0.64932   0.45793  -0.00993
C          C       0.30672   0.24015   0.04222  -0.01699
C          C       0.75922   0.07057   0.07072  -0.01454
C          C       0.94004   0.69658   0.03522  -0.01346
C          C       0.41060   0.32532   0.37641  -0.00755
C          C       0.67812   0.08700   0.37605  -0.00666
C          C       0.91790   0.59121   0.35744  -0.00826
C          C       0.42905   0.37251   0.36193  -0.02012
C          C       0.63121   0.05940   0.35030  -0.01854
C          C       0.94582   0.57193   0.34637  -0.01715
C          C       0.43187   0.45131   0.06597   0.11104
C          C       0.54828   0.97903   0.05562   0.10936
C          C       0.01866   0.56773   0.05613   0.11363
C          C       0.45504   0.43222   0.01676   0.09721
C          C       0.56784   0.02148   0.00142   0.09674
C          C       0.97621   0.54516   0.00573   0.09424
C          C       0.31765   0.38854   0.09679  -0.01142
C          C       0.60612   0.92347   0.04198  -0.01107
C          C       0.07486   0.68152   0.07360  -0.01787
C          C       0.35912   0.39240   0.04343  -0.01792
C          C       0.60731   0.96596   0.03212  -0.00853
C          C       0.03215   0.64146   0.05121  -0.01511
C          C       0.50038   0.45906   0.47564  -0.02346
C          C       0.54258   0.04309   0.45187  -0.02480
C          C       0.95963   0.49894   0.46673  -0.02425
C          C       0.51869   0.50334   0.48339  -0.14444
C          C       0.49829   0.01744   0.45817  -0.14246
C          C       0.98540   0.48049   0.47753  -0.14000
C          C       0.49367   0.52014   0.02791  -0.13917
C          C       0.48006   0.97284   0.01327  -0.13989
C          C       0.02426   0.50525   0.02052  -0.13752
C          C       0.45081   0.49583   0.06795  -0.01392
C          C       0.50376   0.95386   0.05947  -0.01399
C          C       0.04356   0.54811   0.06020  -0.01625
C          C       0.68218   0.37920   0.32840  -0.14178
C          C       0.62470   0.30659   0.32105  -0.14203
C          C       0.69713   0.32168   0.31959  -0.14035
C          C       0.63848   0.34988   0.32633   0.06268
C          C       0.65396   0.29220   0.31812   0.06225
C          C       0.71160   0.36540   0.32530   0.06117
C          C       0.60712   0.36351   0.33532   0.07207
C          C       0.64021   0.24704   0.32166   0.07211
C          C       0.75674   0.39625   0.33486   0.07168
C          C       0.52745   0.44121   0.43262   0.06693
C          C       0.56097   0.08849   0.40991   0.06693
C          C       0.91448   0.47218   0.42500   0.06702
C          C       0.52254   0.40346   0.50105  -0.12213
C          C       0.59823   0.12040   0.48092  -0.12003
C          C       0.88274   0.47785   0.49396  -0.11996
C          C       0.55100   0.38971   0.47022  -0.18396
C          C       0.61252   0.16305   0.45123  -0.18488
C          C       0.84023   0.45020   0.46362  -0.18189
C          C       0.58632   0.41357   0.37184   0.20163
C          C       0.58969   0.17579   0.35113   0.19897
C          C       0.82743   0.41515   0.36418   0.19881
C          C       0.59160   0.45139   0.30359  -0.15857
C          C       0.55249   0.14418   0.27959  -0.15597
C          C       0.85888   0.40908   0.29549  -0.15284
C          C       0.56234   0.46426   0.33095  -0.12931
C          C       0.53907   0.10162   0.30606  -0.12571
C          C       0.90137   0.43741   0.32341  -0.12804
C          C       0.42654   0.51672   0.10768   0.07271
C          C       0.48182   0.90854   0.10372   0.07207
C          C       0.08877   0.57161   0.10247   0.07440
C          C       0.44384   0.55174   0.20883  -0.12767
C          C       0.44510   0.89067   0.19734  -0.12662
C          C       0.10587   0.55352   0.20641  -0.12888
C          C       0.42234   0.57320   0.24189  -0.17856
C          C       0.42257   0.84741   0.23121  -0.18111
C          C       0.14886   0.57431   0.24153  -0.18065
C          C       0.38238   0.55997   0.17383   0.19806
C          C       0.43650   0.82056   0.17286   0.19896
C          C       0.17612   0.61424   0.17266   0.19719
C          C       0.36463   0.52447   0.07450  -0.16300
C          C       0.47368   0.83847   0.08197  -0.16281
C          C       0.15893   0.63282   0.07113  -0.16079
C          C       0.38653   0.50361   0.04040  -0.11562
C          C       0.49546   0.88146   0.04578  -0.11479
C          C       0.11615   0.61166   0.03511  -0.11774
C          C       0.35370   0.64228   0.23796   0.06090
C          C       0.35347   0.70901   0.23484   0.06106
C          C       0.28694   0.64201   0.23784   0.06061
C          C       0.37549   0.68651   0.23704  -0.13969
C          C       0.30936   0.68662   0.23647  -0.14040
C          C       0.30921   0.62016   0.23982  -0.14114
C          C       0.37722   0.61994   0.22066   0.07512
C          C       0.37583   0.75506   0.21545   0.07315
C          C       0.24099   0.61844   0.22104   0.07458
C          C       0.23617   0.21792   0.48938  -0.01238
C          C       0.77562   0.01231   0.54416  -0.00838
C          C       0.98513   0.76521   0.49389  -0.01028
C          C       0.22597   0.24829   0.57301  -0.02631
C          C       0.73925   0.97033   0.60267  -0.02827
C          C       0.02727   0.77398   0.56222  -0.02990
C          C       0.21099   0.30401   0.52508  -0.01889
C          C       0.68903   0.90071   0.51644  -0.01252
C          C       0.09470   0.78543   0.47993  -0.01493
C          C       0.24880   0.34752   0.48966  -0.02480
C          C       0.64657   0.89675   0.47655  -0.02947
C          C       0.09329   0.74319   0.46829  -0.02806
C          C       0.35042   0.25907   0.97149  -0.01069
C          C       0.74132   0.09463   0.98256  -0.01160
C          C       0.91337   0.65341   0.96269  -0.01115
C          C       0.30858   0.24369   0.54408  -0.01488
C          C       0.75489   0.06374   0.57417  -0.01395
C          C       0.93924   0.69151   0.53963  -0.01354
C          C       0.40905   0.32281   0.88098  -0.00874
C          C       0.67837   0.08813   0.87480  -0.00704
C          C       0.91496   0.59395   0.86629  -0.00901
C          C       0.42652   0.36980   0.86229  -0.01588
C          C       0.63183   0.05786   0.85102  -0.01672
C          C       0.94243   0.57439   0.84825  -0.01586
C          C       0.43413   0.45322   0.57040   0.11139
C          C       0.54706   0.98160   0.54983   0.11045
C          C       0.02058   0.56551   0.55739   0.11002
C          C       0.45734   0.43426   0.51891   0.09827
C          C       0.56677   0.02416   0.49704   0.09742
C          C       0.97830   0.54219   0.50611   0.10271
C          C       0.31989   0.39240   0.57724  -0.01491
C          C       0.60004   0.92192   0.54633  -0.01073
C          C       0.07182   0.67918   0.61934  -0.01382
C          C       0.36161   0.39363   0.54760  -0.01509
C          C       0.60470   0.96595   0.53090  -0.00914
C          C       0.03820   0.64032   0.53042  -0.02340
C          C       0.49823   0.45698   0.97709  -0.02211
C          C       0.54354   0.04031   0.95657  -0.02285
C          C       0.95688   0.50175   0.96769  -0.02252
C          C       0.51682   0.50127   0.98446  -0.14319
C          C       0.49928   0.01480   0.96362  -0.14193
C          C       0.98209   0.48266   0.97613  -0.14425
C          C       0.49570   0.52205   0.53087  -0.14209
C          C       0.47891   0.97525   0.50607  -0.14151
C          C       0.02732   0.50361   0.52517  -0.14034
C          C       0.45304   0.49776   0.57400  -0.01384
C          C       0.50260   0.95624   0.55172  -0.01277
C          C       0.04603   0.54651   0.56500  -0.01164
C          C       0.67736   0.37557   0.85306  -0.14151
C          C       0.62145   0.30230   0.84213  -0.14137
C          C       0.69472   0.31983   0.84261  -0.14166
C          C       0.63399   0.34525   0.84810   0.06145
C          C       0.65182   0.28934   0.83958   0.05982
C          C       0.70782   0.36322   0.85042   0.06197
C          C       0.60228   0.35834   0.85553   0.06928
C          C       0.63936   0.24456   0.84158   0.07312
C          C       0.75252   0.39535   0.86049   0.07064
C          C       0.52488   0.43858   0.93743   0.06846
C          C       0.56184   0.08561   0.91434   0.06741
C          C       0.91145   0.47491   0.93017   0.06782
C          C       0.51977   0.40136   0.01149  -0.12115
C          C       0.59881   0.11748   0.98693  -0.12375
C          C       0.88005   0.48029   0.00395  -0.12325
C          C       0.54767   0.38690   0.98271  -0.18360
C          C       0.61262   0.16008   0.95956  -0.18160
C          C       0.83735   0.45211   0.97927  -0.18044
C          C       0.58230   0.40939   0.88002   0.19902
C          C       0.58975   0.17273   0.85935   0.19864
C          C       0.82410   0.41677   0.88102   0.19598
C          C       0.58767   0.44659   0.80571  -0.15320
C          C       0.55307   0.14113   0.78490  -0.15373
C          C       0.85521   0.41115   0.80698  -0.15285
C          C       0.55904   0.46029   0.83190  -0.12937
C          C       0.53993   0.09860   0.81011  -0.12712
C          C       0.89782   0.44002   0.82884  -0.12726
C          C       0.42912   0.51894   0.61557   0.07278
C          C       0.48129   0.91093   0.59734   0.07262
C          C       0.09104   0.57065   0.60970   0.07269
C          C       0.44700   0.55439   0.71485  -0.13098
C          C       0.44722   0.89354   0.70406  -0.13145
C          C       0.10900   0.55296   0.71167  -0.12882
C          C       0.42582   0.57614   0.74827  -0.18145
C          C       0.42601   0.85053   0.74313  -0.17980
C          C       0.15199   0.57460   0.74720  -0.17842
C          C       0.38570   0.56296   0.68200   0.19903
C          C       0.43836   0.82344   0.67511   0.19745
C          C       0.17856   0.61509   0.68102   0.19786
C          C       0.36733   0.52701   0.58507  -0.16403
C          C       0.47289   0.84089   0.57026  -0.16260
C          C       0.16048   0.63340   0.58271  -0.16170
C          C       0.38886   0.50579   0.55075  -0.11495
C          C       0.49354   0.88368   0.53052  -0.11828
C          C       0.11772   0.61139   0.54601  -0.11674
C          C       0.35703   0.64534   0.74554   0.06356
C          C       0.35641   0.71185   0.74653   0.06121
C          C       0.29001   0.64463   0.74523   0.06137
C          C       0.37864   0.68955   0.74757  -0.14098
C          C       0.31228   0.68924   0.74617  -0.14040
C          C       0.31253   0.62303   0.74638  -0.14017
C          C       0.38073   0.62320   0.72679   0.07377
C          C       0.37855   0.75799   0.72899   0.07432
C          C       0.24407   0.62067   0.72746   0.07635
N          N       0.61749   0.40277   0.34594  -0.27823
N          N       0.60089   0.21817   0.32724  -0.27711
N          N       0.78507   0.38503   0.33665  -0.27934
N          N       0.35843   0.57962   0.19910  -0.28637
N          N       0.41632   0.77676   0.20028  -0.28453
N          N       0.21979   0.63758   0.19819  -0.28409
N          N       0.61280   0.39777   0.85501  -0.27685
N          N       0.60031   0.21497   0.83723  -0.28114
N          N       0.78187   0.38561   0.85852  -0.27925
N          N       0.36199   0.58280   0.70773  -0.28498
N          N       0.41865   0.77967   0.70363  -0.28325
N          N       0.22222   0.63922   0.70707  -0.28519
O          O       0.36989   0.30685   0.44801  -0.21271
O          O       0.69464   0.06346   0.45517  -0.21654
O          O       0.94104   0.63239   0.42453  -0.21690
O          O       0.43478   0.38850   0.01813  -0.21993
O          O       0.61152   0.04457   0.00492  -0.21873
O          O       0.95377   0.56643   0.00516  -0.22023
O          O       0.39186   0.42843   0.12815  -0.21266
O          O       0.57102   0.96149   0.11889  -0.21528
O          O       0.03699   0.60745   0.12011  -0.21019
O          O       0.28424   0.34716   0.05748  -0.20636
O          O       0.64834   0.93148   0.06416  -0.21635
O          O       0.06864   0.71719   0.07122  -0.21297
O          O       0.21491   0.27052   0.45631  -0.23976
O          O       0.72411   0.94083   0.47272  -0.24276
O          O       0.05619   0.78349   0.43225  -0.24558
O          O       0.27785   0.23708   0.42395  -0.23615
O          O       0.76289   0.03915   0.46343  -0.24393
O          O       0.96109   0.72432   0.42317  -0.24103
O          O       0.36888   0.30395   0.95730  -0.21356
O          O       0.69738   0.06679   0.95259  -0.21610
O          O       0.93893   0.63471   0.93562  -0.21346
O          O       0.43688   0.39050   0.51933  -0.21976
O          O       0.61043   0.04698   0.50333  -0.21681
O          O       0.95534   0.56289   0.50471  -0.22189
O          O       0.39402   0.43008   0.63187  -0.21427
O          O       0.56965   0.96441   0.61638  -0.21733
O          O       0.03695   0.60528   0.62058  -0.21821
O          O       0.28643   0.34993   0.55269  -0.20992
O          O       0.64088   0.92617   0.56848  -0.22080
O          O       0.06871   0.71633   0.59829  -0.21439
O          O       0.21295   0.26884   0.95539  -0.24350
O          O       0.73287   0.94820   0.98382  -0.24157
O          O       0.05916   0.78707   0.94359  -0.23899
O          O       0.27668   0.23524   0.92125  -0.23961
O          O       0.76845   0.04664   0.96121  -0.24361
O          O       0.96268   0.72736   0.91268  -0.23927

