data_crystal

_audit_creation_method 'AiiDA-DDEC plugin'

_cell_length_a        36.87117
_cell_length_b        36.98351
_cell_length_c         8.29886

_cell_angle_alpha     90.52826
_cell_angle_beta     90.02695
_cell_angle_gamma     120.08659

_symmetry_space_group_name_Hall 'P 1'
_symmetry_space_group_name_H-M  'P 1'

loop_
_symmetry_equiv_pos_as_xyz
 'x,y,z'

loop_
_atom_site_label
_atom_site_type_symbol
_atom_site_fract_x
_atom_site_fract_y
_atom_site_fract_z
_atom_site_charge
H          H       0.25601   0.61265   0.45930   0.11387
H          H       0.38460   0.64135   0.44685   0.11300
H          H       0.35597   0.74093   0.45083   0.11094
H          H       0.33068   0.57005   0.45675   0.06552
H          H       0.42813   0.75845   0.45666   0.06547
H          H       0.23888   0.66794   0.46489   0.06638
H          H       0.28048   0.44312   0.18247   0.10624
H          H       0.55740   0.83847   0.17768   0.10502
H          H       0.16179   0.72245   0.18626   0.10237
H          H       0.30468   0.51769   0.15088   0.10555
H          H       0.48201   0.78984   0.14136   0.10609
H          H       0.20956   0.69499   0.14669   0.10781
H          H       0.20134   0.48647   0.32631   0.12126
H          H       0.51141   0.71253   0.31143   0.12069
H          H       0.28843   0.79825   0.33571   0.12197
H          H       0.17772   0.41139   0.35030   0.10602
H          H       0.58686   0.76330   0.34642   0.10531
H          H       0.23786   0.82331   0.36317   0.10553
H          H       0.63408   0.78020   0.02306   0.10663
H          H       0.22066   0.85684   0.04275   0.10646
H          H       0.14702   0.36342   0.00426   0.10586
H          H       0.70973   0.82092   0.07993   0.10687
H          H       0.18017   0.89170   0.10151   0.10563
H          H       0.11298   0.28832   0.05781   0.10562
H          H       0.58766   0.87288   0.40260   0.06557
H          H       0.12759   0.71386   0.40072   0.06330
H          H       0.28588   0.40813   0.39709   0.06468
H          H       0.62535   0.92678   0.40861   0.08151
H          H       0.07377   0.69853   0.39238   0.08292
H          H       0.30240   0.37074   0.40605   0.08230
H          H       0.75620   0.85741   0.31562   0.10392
H          H       0.14392   0.90175   0.32809   0.10245
H          H       0.10276   0.24495   0.29619   0.10424
H          H       0.83261   0.89564   0.36328   0.11068
H          H       0.10569   0.93994   0.37714   0.10994
H          H       0.06309   0.16869   0.34248   0.11145
H          H       0.84538   0.99320   0.04931   0.11828
H          H       0.00696   0.85460   0.05992   0.11869
H          H       0.14879   0.15325   0.03854   0.11916
H          H       0.77061   0.95269   0.51033   0.10360
H          H       0.04638   0.81686   0.50467   0.10357
H          H       0.18140   0.22774   0.48849   0.10463
H          H       0.68532   0.95337   0.46691   0.08895
H          H       0.04435   0.73121   0.45982   0.08931
H          H       0.26485   0.30882   0.45486   0.08763
H          H       0.74015   0.98450   0.01943   0.06599
H          H       0.01522   0.75802   0.01580   0.06602
H          H       0.24770   0.26081   0.00344   0.06461
H          H       0.71381   0.02954   0.06099   0.06772
H          H       0.97101   0.68578   0.04723   0.06784
H          H       0.31669   0.28134   0.07338   0.06298
H          H       0.71731   0.01289   0.25710   0.06996
H          H       0.98645   0.70574   0.24578   0.06898
H          H       0.29507   0.28352   0.26086   0.07759
H          H       0.65363   0.00147   0.44324   0.06858
H          H      -0.00012   0.65462   0.42387   0.06817
H          H       0.35806   0.34512   0.43817   0.06901
H          H       0.65332   0.04182   0.13614   0.05414
H          H       0.96066   0.61288   0.13369   0.05389
H          H       0.38674   0.34095   0.05959   0.05403
H          H       0.58893   0.00858   0.53592   0.07615
H          H       0.98866   0.58031   0.50405   0.07722
H          H       0.42384   0.41241   0.53084   0.07797
H          H       0.58293   0.97711   0.21125   0.08192
H          H       0.02920   0.61241   0.19388   0.08206
H          H       0.40170   0.41241   0.18425   0.08252
H          H       0.56908   0.91356   0.16929   0.08892
H          H       0.09255   0.65844   0.13980   0.08678
H          H       0.34698   0.42326   0.18103   0.08922
H          H       0.53763   0.88703   0.50797   0.07359
H          H       0.11117   0.64957   0.50498   0.07186
H          H       0.35020   0.45946   0.49951   0.07127
H          H       0.95897   0.03790   0.24276   0.11154
H          H       0.96371   0.92411   0.27002   0.11140
H          H       0.07818   0.04287   0.25133   0.11032
H          H       0.89670   0.91976   0.24969   0.06591
H          H       0.08202   0.97972   0.24501   0.06724
H          H       0.02270   0.10483   0.21858   0.06737
H          H       0.25509   0.61296   0.96778   0.11350
H          H       0.38432   0.64367   0.97123   0.11300
H          H       0.35377   0.74188   0.96093   0.11236
H          H       0.33087   0.57199   0.97865   0.06567
H          H       0.42623   0.76039   0.97204   0.06572
H          H       0.23691   0.66769   0.97105   0.06635
H          H       0.27945   0.44137   0.67945   0.10537
H          H       0.55690   0.83359   0.68270   0.10462
H          H       0.16387   0.72196   0.68372   0.10503
H          H       0.30481   0.51620   0.64446   0.10800
H          H       0.48197   0.78462   0.63948   0.10712
H          H       0.21251   0.69541   0.64641   0.10691
H          H       0.20275   0.48761   0.82419   0.12143
H          H       0.50877   0.71245   0.83185   0.12171
H          H       0.28615   0.79796   0.83691   0.12128
H          H       0.17994   0.41268   0.84642   0.10535
H          H       0.58458   0.76281   0.85898   0.10570
H          H       0.23649   0.82409   0.86817   0.10596
H          H       0.63468   0.77810   0.52053   0.10583
H          H       0.22130   0.85570   0.52899   0.10669
H          H       0.14506   0.36370   0.51555   0.10464
H          H       0.71005   0.81822   0.58253   0.10679
H          H       0.18122   0.89078   0.58832   0.10569
H          H       0.10941   0.28850   0.57049   0.10620
H          H       0.58852   0.87613   0.89458   0.06396
H          H       0.12651   0.71977   0.88920   0.06369
H          H       0.29220   0.41485   0.90281   0.06411
H          H       0.62556   0.93026   0.90595   0.08157
H          H       0.07189   0.70088   0.89199   0.08519
H          H       0.30653   0.37578   0.90286   0.07930
H          H       0.75520   0.85227   0.81254   0.10325
H          H       0.14690   0.90211   0.81588   0.10391
H          H       0.09872   0.24352   0.80870   0.10284
H          H       0.83140   0.88953   0.86737   0.10977
H          H       0.10904   0.94042   0.87087   0.11012
H          H       0.05987   0.16753   0.85883   0.10723
H          H       0.84674   0.99103   0.57137   0.11851
H          H       0.00727   0.85355   0.56871   0.11877
H          H       0.14402   0.15185   0.54624   0.11888
H          H       0.76904   0.95346   0.99373   0.10393
H          H       0.04656   0.81806   0.00273   0.10388
H          H       0.18747   0.22947   0.98630   0.10347
H          H       0.68662   0.95419   0.96251   0.09038
H          H       0.04645   0.73611   0.95822   0.08901
H          H       0.27297   0.31466   0.95725   0.08980
H          H       0.73966   0.98159   0.50776   0.06709
H          H       0.01652   0.75742   0.50623   0.06615
H          H       0.24216   0.25608   0.51453   0.06671
H          H       0.72050   0.03085   0.58213   0.06242
H          H       0.96696   0.68906   0.57586   0.06157
H          H       0.31348   0.28188   0.55760   0.06632
H          H       0.72138   0.00828   0.76820   0.07809
H          H       0.99107   0.71162   0.76306   0.07873
H          H       0.29303   0.28021   0.75204   0.07136
H          H       0.65151   0.01419   0.95462   0.06885
H          H       0.98462   0.63817   0.94830   0.06864
H          H       0.35294   0.34712   0.92226   0.06815
H          H       0.65997   0.04100   0.58434   0.05196
H          H       0.95751   0.62012   0.54952   0.05242
H          H       0.38621   0.34228   0.60914   0.05367
H          H       0.58273   0.00851   0.04979   0.07763
H          H       0.99537   0.57806   0.03997   0.07570
H          H       0.42545   0.41136  -0.00192   0.07847
H          H       0.58877   0.97957   0.70660   0.08204
H          H       0.01601   0.60701   0.68342   0.08445
H          H       0.39408   0.41318   0.69923   0.07983
H          H       0.57055   0.91281   0.67660   0.08840
H          H       0.08423   0.65730   0.66689   0.08865
H          H       0.34419   0.42777   0.66844   0.08679
H          H       0.53719   0.88889  -0.00326   0.07050
H          H       0.11260   0.65339   0.95182   0.06954
H          H       0.35448   0.46218   0.03903   0.07276
H          H       0.95729   0.03402   0.77003   0.11049
H          H       0.96528   0.92188   0.78491   0.11087
H          H       0.07798   0.04216   0.76641   0.11072
H          H       0.89729   0.91591   0.76824   0.06683
H          H       0.08341   0.97977   0.75542   0.06647
H          H       0.01934   0.10166   0.74975   0.06794
C          C       0.28925   0.63592   0.45470  -0.13975
C          C       0.36136   0.65131   0.44772  -0.13999
C          C       0.34609   0.70780   0.44993  -0.13791
C          C       0.30276   0.67867   0.45368   0.06095
C          C       0.31852   0.62197   0.45192   0.06048
C          C       0.37552   0.69450   0.44717   0.06123
C          C       0.30524   0.57746   0.45733   0.07140
C          C       0.42031   0.72555   0.45000   0.07197
C          C       0.27204   0.69272   0.46098   0.07174
C          C       0.22805   0.42149   0.01748   0.06797
C          C       0.57736   0.80488   0.02122   0.06788
C          C       0.19512   0.77540   0.03044   0.06743
C          C       0.26408   0.45243   0.09889  -0.12186
C          C       0.54710   0.81189   0.09658  -0.12261
C          C       0.18806   0.73832   0.10487  -0.12006
C          C       0.27789   0.49475   0.08078  -0.18212
C          C       0.50439   0.78442   0.07554  -0.18202
C          C       0.21504   0.72273   0.08201  -0.18073
C          C       0.25514   0.50680   0.48036   0.19808
C          C       0.49109   0.74545   0.46864   0.19985
C          C       0.25342   0.74430   0.48399   0.19905
C          C       0.21829   0.47623   0.40321  -0.15260
C          C       0.52167   0.73932   0.39189  -0.15280
C          C       0.26084   0.78159   0.41091  -0.15507
C          C       0.20497   0.43402   0.41889  -0.12827
C          C       0.56407   0.76780   0.41346  -0.12836
C          C       0.23249   0.79570   0.42841  -0.12599
C          C       0.64854   0.81349   0.04850  -0.13622
C          C       0.18720   0.83800   0.06456  -0.13773
C          C       0.16633   0.34980   0.03324  -0.13496
C          C       0.69109   0.83621   0.08330  -0.14294
C          C       0.16457   0.85775   0.09989  -0.14228
C          C       0.14693   0.30745   0.06524  -0.14347
C          C       0.71107   0.87904   0.12179  -0.01264
C          C       0.12143   0.83479   0.13267  -0.01294
C          C       0.17016   0.28819   0.10646  -0.01324
C          C       0.68604   0.89788   0.12671   0.10629
C          C       0.10217   0.79086   0.13218   0.10582
C          C       0.21406   0.31364   0.11458   0.10933
C          C       0.64271   0.87490   0.09065   0.11144
C          C       0.12513   0.77066   0.09573   0.10945
C          C       0.23389   0.35693   0.08362   0.10940
C          C       0.62293   0.83179   0.05081  -0.02627
C          C       0.16848   0.79413   0.06117  -0.02585
C          C       0.21021   0.37609   0.04265  -0.02368
C          C       0.75668   0.90277   0.15301   0.07388
C          C       0.09784   0.85663   0.16411   0.07305
C          C       0.14818   0.24294   0.13865   0.07394
C          C       0.60195   0.90075   0.48027  -0.02154
C          C       0.09864   0.70048   0.47088  -0.01983
C          C       0.30000   0.39483   0.47553  -0.02039
C          C       0.77580   0.88654   0.25293  -0.12863
C          C       0.11448   0.89211   0.26539  -0.12710
C          C       0.11215   0.22475   0.23547  -0.12766
C          C       0.81898   0.90807   0.27959  -0.17728
C          C       0.09308   0.91374   0.29255  -0.18066
C          C       0.08970   0.18182   0.26111  -0.17995
C          C       0.84456   0.94700   0.20647   0.19599
C          C       0.05381   0.90008   0.21915   0.19650
C          C       0.10293   0.15563   0.19041   0.19626
C          C       0.82546   0.96356   0.10816  -0.15675
C          C       0.03680   0.86432   0.11933  -0.15863
C          C       0.13932   0.17378   0.09564  -0.15769
C          C       0.78255   0.94150   0.07963  -0.12197
C          C       0.05881   0.84359   0.08988  -0.11998
C          C       0.16113   0.21652   0.06855  -0.12019
C          C       0.70778   0.96923   0.06516  -0.01914
C          C       0.03082   0.74124   0.06070  -0.01897
C          C       0.26499   0.29256   0.05606  -0.01938
C          C       0.70039   0.00237   0.14134  -0.01759
C          C       0.99789   0.70007   0.13113  -0.01689
C          C       0.30395   0.29813   0.14182  -0.01659
C          C       0.64123   0.01048   0.08106  -0.03038
C          C       0.99088   0.63305   0.07344  -0.02757
C          C       0.36727   0.35565   0.04329  -0.03276
C          C       0.59357   0.98703   0.08717  -0.01908
C          C       0.01642   0.61108   0.07269  -0.01783
C          C       0.39550   0.40295   0.05645  -0.01591
C          C       0.56929   0.91142   0.54433  -0.00484
C          C       0.08668   0.65708   0.53512  -0.00401
C          C       0.34360   0.42829   0.53618  -0.00580
C          C       0.97749   0.02253   0.25229  -0.14255
C          C       0.97933   0.95808   0.26772  -0.14155
C          C       0.04413   0.02440   0.25719  -0.13993
C          C       0.95620   0.97855   0.26065   0.06267
C          C       0.02351   0.98085   0.26428   0.06130
C          C       0.02126   0.04552   0.24988   0.06060
C          C       0.91049   0.95392   0.24783   0.07497
C          C       0.04775   0.95949   0.25240   0.07412
C          C       0.04278   0.09076   0.22791   0.07436
C          C       0.28822   0.63666   0.96628  -0.14015
C          C       0.36071   0.65313   0.96793  -0.14028
C          C       0.34434   0.70887   0.96269  -0.14120
C          C       0.30113   0.67924   0.96410   0.06094
C          C       0.31800   0.62335   0.96792   0.06082
C          C       0.37422   0.69615   0.96471   0.06243
C          C       0.30522   0.57902   0.97204   0.07175
C          C       0.41883   0.72762   0.96702   0.07042
C          C       0.26998   0.69272   0.96740   0.07097
C          C       0.22631   0.41998   0.51892   0.06646
C          C       0.57826   0.80276   0.51765   0.06566
C          C       0.19650   0.77462   0.52542   0.06690
C          C       0.26304   0.45087   0.59665  -0.12035
C          C       0.54740   0.80826   0.59586  -0.11980
C          C       0.19005   0.73796   0.60188  -0.12093
C          C       0.27749   0.49330   0.57654  -0.18218
C          C       0.50486   0.78059   0.57083  -0.18355
C          C       0.21749   0.72281   0.58036  -0.18218
C          C       0.25567   0.50810   0.98329   0.19754
C          C       0.48986   0.74788   0.98098   0.20076
C          C       0.25108   0.74422   0.98622   0.19653
C          C       0.21951   0.47749   0.90270  -0.15416
C          C       0.51979   0.74032   0.90686  -0.15366
C          C       0.25872   0.78158   0.91309  -0.15296
C          C       0.20672   0.43539   0.91699  -0.12678
C          C       0.56238   0.76862   0.92401  -0.12551
C          C       0.23088   0.79625   0.93232  -0.12898
C          C       0.64922   0.81131   0.54744  -0.13554
C          C       0.18793   0.83693   0.55265  -0.13659
C          C       0.16369   0.34922   0.54262  -0.13606
C          C       0.69164   0.83377   0.58415  -0.14466
C          C       0.16545   0.85683   0.58775  -0.14424
C          C       0.14344   0.30690   0.57608  -0.14320
C          C       0.71176   0.87661   0.62260  -0.01440
C          C       0.12244   0.83416   0.62274  -0.01270
C          C       0.16596   0.28679   0.61552  -0.01381
C          C       0.68704   0.89586   0.62511   0.10980
C          C       0.10304   0.79021   0.62229   0.10946
C          C       0.21002   0.31147   0.62246   0.10737
C          C       0.64358   0.87276   0.59150   0.10764
C          C       0.12604   0.76988   0.58849   0.10946
C          C       0.23073   0.35477   0.59022   0.11064
C          C       0.62373   0.82973   0.55009  -0.02295
C          C       0.16939   0.79304   0.55306  -0.02662
C          C       0.20772   0.37462   0.54840  -0.02506
C          C       0.75710   0.89974   0.65816   0.07337
C          C       0.09926   0.85624   0.65790   0.07290
C          C       0.14341   0.24146   0.64699   0.07426
C          C       0.60193   0.90358   0.97438  -0.02318
C          C       0.09828   0.70357   0.96285  -0.02519
C          C       0.30443   0.39917   0.97837  -0.01887
C          C       0.77540   0.88210   0.75528  -0.12729
C          C       0.11689   0.89216   0.75725  -0.12769
C          C       0.10795   0.22333   0.74695  -0.12840
C          C       0.81838   0.90306   0.78598  -0.17819
C          C       0.09570   0.91385   0.78794  -0.17946
C          C       0.08592   0.18045   0.77483  -0.17787
C          C       0.84455   0.94284   0.72021   0.19708
C          C       0.05574   0.89989   0.72042   0.19659
C          C       0.09907   0.15424   0.70357   0.19724
C          C       0.82627   0.96072   0.62459  -0.15791
C          C       0.03779   0.86370   0.62287  -0.15713
C          C       0.13457   0.17231   0.60402  -0.15772
C          C       0.78354   0.93932   0.59231  -0.11655
C          C       0.05949   0.84283   0.58985  -0.11818
C          C       0.15580   0.21492   0.57411  -0.12020
C          C       0.70848   0.96771   0.56411  -0.02175
C          C       0.03048   0.73987   0.55876  -0.01993
C          C       0.25926   0.28869   0.55889  -0.01942
C          C       0.70469   0.00185   0.65242  -0.01736
C          C       0.99653   0.70177   0.64465  -0.01813
C          C       0.29993   0.29632   0.63564  -0.01687
C          C       0.64576   0.00692   0.56584  -0.02837
C          C       0.99202   0.63935   0.54218  -0.03060
C          C       0.36658   0.35496   0.56474  -0.03201
C          C       0.59821   0.98639   0.57961  -0.01349
C          C       0.01102   0.61109   0.55560  -0.01437
C          C       0.39196   0.40249   0.57356  -0.01670
C          C       0.56847   0.91327   0.03696  -0.00684
C          C       0.08944   0.65978   0.00866  -0.00419
C          C       0.34745   0.42977   0.05212  -0.00571
C          C       0.97653   0.01937   0.77610  -0.13991
C          C       0.98014   0.95580   0.78452  -0.13998
C          C       0.04401   0.02306   0.77415  -0.14082
C          C       0.95616   0.97538   0.78136   0.06107
C          C       0.02426   0.97950   0.77898   0.05984
C          C       0.02022   0.04330   0.77166   0.06112
C          C       0.91052   0.95001   0.76758   0.07358
C          C       0.04923   0.95899   0.76244   0.07432
C          C       0.04037   0.08858   0.75144   0.07431
N          N       0.26629   0.54873   0.46244  -0.27745
N          N       0.44884   0.71508   0.44719  -0.27752
N          N       0.28327   0.73186   0.46310  -0.27808
N          N       0.88814   0.97135   0.22562  -0.28564
N          N       0.02970   0.91940   0.23971  -0.28144
N          N       0.08294   0.11237   0.21240  -0.28313
N          N       0.26635   0.54994   0.96740  -0.27861
N          N       0.44756   0.71742   0.96369  -0.27982
N          N       0.28094   0.73179   0.96703  -0.27851
N          N       0.88793   0.96711   0.74406  -0.28478
N          N       0.03162   0.91900   0.74539  -0.28327
N          N       0.08016   0.11110   0.72775  -0.28478
O          O       0.70330   0.93864   0.18264  -0.21699
O          O       0.06101   0.76726   0.18252  -0.21627
O          O       0.23786   0.29693   0.17053  -0.21914
O          O       0.62109   0.89595   0.11310  -0.22144
O          O       0.10396   0.72781   0.10939  -0.22090
O          O       0.27641   0.37920   0.11241  -0.21993
O          O       0.65682   0.98767   0.16833  -0.21501
O          O       0.01369   0.67227   0.15841  -0.21363
O          O       0.33568   0.34090   0.16696  -0.22339
O          O       0.57439   0.94970   0.48085  -0.25011
O          O       0.04875   0.62388   0.46518  -0.24887
O          O       0.37716   0.42352   0.47140  -0.24771
O          O       0.70477   0.93682   0.67910  -0.21750
O          O       0.06209   0.76685   0.67451  -0.21821
O          O       0.23316   0.29381   0.67664  -0.21857
O          O       0.62186   0.89361   0.61725  -0.21929
O          O       0.10456   0.72725   0.60881  -0.21933
O          O       0.27345   0.37647   0.61537  -0.22284
O          O       0.66232   0.99106   0.68626  -0.22684
O          O       0.00689   0.66981   0.67168  -0.22610
O          O       0.32955   0.33977   0.66251  -0.21798
O          O       0.57337   0.95195   0.97808  -0.24641
O          O       0.04926   0.62664   0.95494  -0.24819
O          O       0.38115   0.42751   0.97480  -0.24918

