data_crystal

_audit_creation_method 'AiiDA-DDEC plugin'

_cell_length_a        36.85715
_cell_length_b        36.64053
_cell_length_c         8.63904

_cell_angle_alpha     91.06234
_cell_angle_beta     90.26010
_cell_angle_gamma     120.12720

_symmetry_space_group_name_Hall 'P 1'
_symmetry_space_group_name_H-M  'P 1'

loop_
_symmetry_equiv_pos_as_xyz
 'x,y,z'

loop_
_atom_site_label
_atom_site_type_symbol
_atom_site_fract_x
_atom_site_fract_y
_atom_site_fract_z
_atom_site_charge
H          H       0.25729   0.61281   0.37702   0.11203
H          H       0.38705   0.64559   0.35943   0.11210
H          H       0.35476   0.74348   0.36783   0.11142
H          H       0.23835   0.66753   0.39249   0.06467
H          H       0.33469   0.57297   0.37164   0.06524
H          H       0.42742   0.76314   0.36614   0.06472
H          H       0.75501   0.86125   0.27951   0.10833
H          H       0.13995   0.89643   0.27048   0.10404
H          H       0.10513   0.24726   0.24642   0.10808
H          H       0.83175   0.89759   0.31588   0.10985
H          H       0.10325   0.93622   0.31435   0.11145
H          H       0.06389   0.17039   0.28052   0.11182
H          H       0.84605   0.98966   0.51244   0.12367
H          H       0.00685   0.85370   0.50185   0.12428
H          H       0.14094   0.15109   0.46697   0.12404
H          H       0.76928   0.95380   0.46363   0.11307
H          H       0.04632   0.81679   0.44592   0.11106
H          H       0.18207   0.22834   0.43302   0.11146
H          H       0.55365   0.83479   0.11519   0.10164
H          H       0.16535   0.72068   0.11252   0.10348
H          H       0.28458   0.44884   0.09562   0.10065
H          H       0.47943   0.78576   0.04967   0.10540
H          H       0.21483   0.69546   0.05903   0.10701
H          H       0.30916   0.52322   0.03792   0.10636
H          H       0.51259   0.71636   0.25456   0.11962
H          H       0.28492   0.79824   0.25922   0.11891
H          H       0.20334   0.48497   0.27227   0.11962
H          H       0.58836   0.76655   0.30813   0.10806
H          H       0.23574   0.82522   0.30146   0.10720
H          H       0.17902   0.40928   0.31569   0.10772
H          H       0.96261   0.92289   0.22446   0.11109
H          H       0.07769   0.04167   0.18684   0.11190
H          H       0.95904   0.03811   0.18723   0.11152
H          H       0.89570   0.91931   0.21575   0.06782
H          H       0.08063   0.97736   0.19121   0.06618
H          H       0.02245   0.10508   0.16416   0.06715
H          H       0.72503   0.08241   0.17612   0.06403
H          H       0.91614   0.64123   0.15214   0.06334
H          H       0.34737   0.26545   0.17269   0.06469
H          H       0.75796   0.12519   0.05656   0.05995
H          H       0.87663   0.63112   0.01121   0.05926
H          H       0.35465   0.23063   0.04762   0.05976
H          H       0.79562   0.09107   0.46649   0.07670
H          H       0.91122   0.69954   0.44607   0.07643
H          H       0.29472   0.20357   0.43234   0.07515
H          H       0.79594   0.09403   0.17539   0.05938
H          H       0.90654   0.70157   0.13837   0.06035
H          H       0.28442   0.19500   0.15909   0.05728
H          H       0.70051   0.01043   0.15019   0.06750
H          H       0.98963   0.68710   0.12305   0.06508
H          H       0.30696   0.29462   0.14958   0.06929
H          H       0.73967   0.02811   0.30001   0.07656
H          H       0.97374   0.70910   0.27722   0.07840
H          H       0.28055   0.25677   0.29610   0.07736
H          H       0.75200   0.96853   0.22555   0.07723
H          H       0.03361   0.78049   0.22247   0.07690
H          H       0.21395   0.25443   0.22469   0.07359
H          H       0.70137   0.95355   0.30063   0.09007
H          H       0.04818   0.74309   0.28001   0.08729
H          H       0.25532   0.30492   0.28935   0.08591
H          H       0.60881   0.01564   0.38384   0.06464
H          H       0.98733   0.58862   0.39065   0.06045
H          H       0.40922   0.39361   0.40705   0.06562
H          H       0.64893   0.02356   0.25255   0.07164
H          H       0.98919   0.62705   0.26226   0.07317
H          H       0.37856   0.35529   0.26119   0.07177
H          H       0.66758   0.08725   0.42287   0.05520
H          H       0.91675   0.57769   0.35168   0.05731
H          H       0.42002   0.33271   0.42715   0.05682
H          H       0.66791   0.07120   0.07291   0.06516
H          H       0.92822   0.59357   0.05735   0.06775
H          H       0.39512   0.32251   0.07343   0.07086
H          H       0.57993   0.93657   0.42452   0.06623
H          H       0.06434   0.65403   0.37084   0.07744
H          H       0.35779   0.42138   0.45197   0.06749
H          H       0.58405   0.95851   0.09143   0.05269
H          H       0.05642   0.62665   0.97009   0.05362
H          H       0.37612   0.41665   0.09446   0.05330
H          H       0.63929   0.93605   0.17296   0.09576
H          H       0.06034   0.69983   0.12987   0.09052
H          H       0.29713   0.36427   0.18248   0.09716
H          H       0.58544   0.89735   0.15458   0.06626
H          H       0.10007   0.68582   0.13028   0.06061
H          H       0.31585   0.41872   0.15935   0.06710
H          H       0.63124   0.77939   0.02177   0.10656
H          H       0.21963   0.85468   0.02997   0.10677
H          H       0.14928   0.36912   0.00318   0.10764
H          H       0.70647   0.82131   0.09039   0.10508
H          H       0.17646   0.88650   0.09426   0.10674
H          H       0.11570   0.29406   0.06674   0.10442
H          H       0.25763   0.61446   0.84933   0.11147
H          H       0.38675   0.64531   0.82616   0.11205
H          H       0.35660   0.74463   0.85569   0.11161
H          H       0.23947   0.66883   0.86851   0.06455
H          H       0.33283   0.57241   0.83906   0.06431
H          H       0.42930   0.76296   0.85742   0.06447
H          H       0.75172   0.85833   0.78623   0.10406
H          H       0.13977   0.89584   0.78714   0.10772
H          H       0.10610   0.24506   0.77209   0.10418
H          H       0.82822   0.89307   0.82960   0.11232
H          H       0.10132   0.93408   0.83697   0.11155
H          H       0.06460   0.16800   0.80324   0.11018
H          H       0.84535   0.99315   0.00139   0.12316
H          H       0.00269   0.84908   0.01211   0.12279
H          H       0.14901   0.15416   0.98759   0.12276
H          H       0.76836   0.95574   0.95951   0.11119
H          H       0.03985   0.80965   0.96425   0.11379
H          H       0.18940   0.23115   0.94750   0.11126
H          H       0.55553   0.84210   0.59660   0.10158
H          H       0.16512   0.72384   0.61080   0.10127
H          H       0.28809   0.44566   0.60335   0.10176
H          H       0.48074   0.79327   0.53971   0.10530
H          H       0.21219   0.69578   0.56250   0.10592
H          H       0.31315   0.52036   0.55290   0.10414
H          H       0.51506   0.72007   0.72210   0.11889
H          H       0.28362   0.79909   0.75599   0.11925
H          H       0.20193   0.48485   0.73893   0.11898
H          H       0.59024   0.77026   0.78597   0.10265
H          H       0.23274   0.82370   0.80496   0.10527
H          H       0.17795   0.40980   0.79222   0.10199
H          H       0.96277   0.92098   0.74164   0.11227
H          H       0.07556   0.04102   0.68880   0.11144
H          H       0.95550   0.03422   0.70342   0.11196
H          H       0.89438   0.91567   0.73442   0.06843
H          H       0.08031   0.97766   0.69322   0.06828
H          H       0.01922   0.10297   0.67764   0.06864
H          H       0.72530   0.08264   0.67929   0.06190
H          H       0.92597   0.64106   0.65444   0.06419
H          H       0.35607   0.27271   0.66078   0.06027
H          H       0.75669   0.12543   0.55758   0.06125
H          H       0.87965   0.62721   0.54519   0.05862
H          H       0.36797   0.24334   0.52554   0.06092
H          H       0.79622   0.08997   0.96938   0.07690
H          H       0.91253   0.70464   0.93352   0.07454
H          H       0.28131   0.19659   0.95371   0.07827
H          H       0.79655   0.09552   0.67235   0.05942
H          H       0.90936   0.69793   0.65208   0.05758
H          H       0.29897   0.20131   0.63724   0.06174
H          H       0.70069   0.01048   0.64448   0.06107
H          H       0.99542   0.69102   0.63680   0.06555
H          H       0.30753   0.29663   0.63492   0.06046
H          H       0.73924   0.02848   0.79710   0.07695
H          H       0.97750   0.71365   0.78079   0.07904
H          H       0.28658   0.25766   0.78148   0.07815
H          H       0.75397   0.97064   0.72168   0.07948
H          H       0.03289   0.78571   0.70523   0.07826
H          H       0.21396   0.24181   0.69759   0.07982
H          H       0.70322   0.95404   0.79866   0.09073
H          H       0.05202   0.75337   0.77965   0.08570
H          H       0.24695   0.29200   0.78893   0.09025
H          H       0.60870   0.01787   0.91365   0.06181
H          H       0.97552   0.58010   0.88259   0.05856
H          H       0.40479   0.38177   0.90718   0.05763
H          H       0.64342   0.01487   0.77758   0.06267
H          H       0.98440   0.62463   0.77219   0.07089
H          H       0.36066   0.34576   0.79038   0.06657
H          H       0.67062   0.08788   0.87936   0.05734
H          H       0.90924   0.57923   0.86302   0.05552
H          H       0.40803   0.31836   0.87779   0.05557
H          H       0.66377   0.05760   0.58926   0.05539
H          H       0.93319   0.59260   0.54796   0.06267
H          H       0.39291   0.33535   0.59291   0.05310
H          H       0.58717   0.93874   0.90477   0.06885
H          H       0.05426   0.66137   0.83379   0.07529
H          H       0.35174   0.40752   0.90821   0.06866
H          H       0.59605   0.96946   0.59544   0.04982
H          H       0.05307   0.62945   0.55402   0.04972
H          H       0.37286   0.40394   0.61876   0.04967
H          H       0.64438   0.94175   0.66337   0.08899
H          H       0.06595   0.70757   0.63959   0.08627
H          H       0.29613   0.35259   0.66608   0.08647
H          H       0.59023   0.90356   0.66516   0.06835
H          H       0.10685   0.69555   0.63769   0.06470
H          H       0.31066   0.40648   0.68672   0.07131
H          H       0.62916   0.77938   0.52606   0.10791
H          H       0.22204   0.85706   0.52320   0.10640
H          H       0.15129   0.36964   0.53077   0.10682
H          H       0.70404   0.81969   0.60089   0.10647
H          H       0.17970   0.89005   0.59027   0.10527
H          H       0.11578   0.29424   0.59225   0.10792
C          C       0.29029   0.63696   0.37135  -0.14181
C          C       0.36303   0.65460   0.36067  -0.14271
C          C       0.34565   0.71022   0.36549  -0.14305
C          C       0.30260   0.67986   0.37101   0.06157
C          C       0.32050   0.62403   0.36687   0.06122
C          C       0.37589   0.69791   0.36043   0.06182
C          C       0.27113   0.69302   0.38188   0.07127
C          C       0.30860   0.57949   0.37495   0.07122
C          C       0.42037   0.73015   0.36384   0.07146
C          C       0.57764   0.80806   0.45642   0.07555
C          C       0.19582   0.77589   0.45565   0.07540
C          C       0.23134   0.42153   0.46496   0.07516
C          C       0.75571   0.90505   0.11355   0.06539
C          C       0.09346   0.85043   0.11081   0.06423
C          C       0.14971   0.24517   0.09045   0.06469
C          C       0.77473   0.88914   0.21277  -0.13152
C          C       0.11061   0.88671   0.20856  -0.12847
C          C       0.11374   0.22681   0.18323  -0.13262
C          C       0.81813   0.90973   0.23388  -0.17736
C          C       0.09002   0.90939   0.23335  -0.18067
C          C       0.09041   0.18336   0.20284  -0.18161
C          C       0.84419   0.94757   0.15712   0.19422
C          C       0.05085   0.89628   0.16144   0.19657
C          C       0.10283   0.15651   0.13155   0.19398
C          C       0.82523   0.96405   0.06101  -0.14989
C          C       0.03301   0.85943   0.06724  -0.15141
C          C       0.13924   0.17481   0.04165  -0.14912
C          C       0.78206   0.94293   0.03767  -0.11682
C          C       0.05411   0.83743   0.04034  -0.11870
C          C       0.16173   0.21804   0.01913  -0.11499
C          C       0.54576   0.81094   0.02437  -0.11938
C          C       0.18995   0.73691   0.02857  -0.11870
C          C       0.26722   0.45625   0.01235  -0.11866
C          C       0.50372   0.78331   0.98726  -0.18482
C          C       0.21791   0.72267  -0.00128  -0.18282
C          C       0.28117   0.49829   0.97973  -0.18509
C          C       0.49141   0.75146   0.39128   0.19749
C          C       0.25151   0.74455   0.40375   0.19625
C          C       0.25989   0.50801   0.40792   0.19836
C          C       0.52242   0.74409   0.32901  -0.15436
C          C       0.25832   0.78202   0.33530  -0.15380
C          C       0.22166   0.47586   0.34404  -0.15779
C          C       0.56465   0.77217   0.35956  -0.13409
C          C       0.23068   0.79693   0.35910  -0.13379
C          C       0.20815   0.43363   0.36986  -0.13316
C          C       0.95571   0.97811   0.20963   0.06180
C          C       0.02264   0.97959   0.20793   0.06069
C          C       0.02114   0.04525   0.19016   0.06217
C          C       0.97852   0.95712   0.21713  -0.13998
C          C       0.04368   0.02351   0.19628  -0.14186
C          C       0.97735   0.02237   0.19637  -0.14191
C          C       0.90982   0.95358   0.20207   0.07305
C          C       0.04627   0.95728   0.19610   0.07555
C          C       0.04265   0.09092   0.16868   0.07280
C          C       0.74224   0.09060   0.06690  -0.03712
C          C       0.91057   0.65023   0.03744  -0.03719
C          C       0.33750   0.24798   0.06132  -0.03910
C          C       0.77614   0.07820   0.07127  -0.01120
C          C       0.92318   0.69686   0.04048  -0.00934
C          C       0.29046   0.21612   0.06049  -0.01006
C          C       0.72988   0.01208   0.18603  -0.02351
C          C       0.98897   0.71531   0.16397  -0.02283
C          C       0.27702   0.26732   0.18161  -0.02268
C          C       0.72247   0.96808   0.20319  -0.01409
C          C       0.03316   0.75134   0.18793  -0.01368
C          C       0.24485   0.28087   0.19613  -0.01436
C          C       0.64076   0.02046   0.37574  -0.03011
C          C       0.98343   0.61654   0.38277  -0.02890
C          C       0.38216   0.36169   0.38681  -0.02683
C          C       0.67120   0.06090   0.46514  -0.02139
C          C       0.93894   0.60402   0.42867  -0.01388
C          C       0.39006   0.32949   0.46659  -0.02265
C          C       0.60616   0.95421   0.50776  -0.01662
C          C       0.05342   0.65520   0.48829  -0.00795
C          C       0.34852   0.39415   0.52701  -0.01815
C          C       0.61309   0.92013   0.09013  -0.01113
C          C       0.07919   0.69148   0.05582  -0.00341
C          C       0.30878   0.38925   0.09731  -0.00619
C          C       0.68581   0.90133   0.05925   0.10217
C          C       0.09864   0.78450   0.04998   0.10101
C          C       0.21654   0.31586   0.04707   0.10192
C          C       0.64291   0.87724   0.01516   0.10342
C          C       0.12352   0.76655   0.00793   0.10491
C          C       0.23594   0.35909   0.01071   0.10351
C          C       0.62249   0.83293   0.00039  -0.01437
C          C       0.16757   0.79136   0.00095  -0.01654
C          C       0.21188   0.37891   0.99061  -0.01515
C          C       0.64642   0.81360   0.03132  -0.14777
C          C       0.18571   0.83481   0.03467  -0.14480
C          C       0.16837   0.35433   0.01445  -0.14695
C          C       0.68862   0.83720   0.07256  -0.13846
C          C       0.16138   0.85261   0.07321  -0.14108
C          C       0.14950   0.31214   0.05216  -0.14016
C          C       0.70979   0.88158   0.08527  -0.02424
C          C       0.11731   0.82841   0.08110  -0.01884
C          C       0.17261   0.29126   0.06601  -0.02420
C          C       0.29076   0.63828   0.84450  -0.14061
C          C       0.36307   0.65476   0.83171  -0.14115
C          C       0.34700   0.71127   0.84756  -0.14033
C          C       0.30374   0.68132   0.84970   0.06015
C          C       0.32036   0.62468   0.83597   0.06224
C          C       0.37673   0.69826   0.83910   0.05947
C          C       0.27237   0.69449   0.86403   0.07184
C          C       0.30736   0.57984   0.84202   0.07149
C          C       0.42149   0.72979   0.84771   0.07253
C          C       0.57776   0.80643   0.95445   0.07369
C          C       0.19483   0.77377   0.96097   0.07389
C          C       0.22955   0.42343   0.94739   0.07211
C          C       0.75473   0.90300   0.62007   0.06455
C          C       0.09650   0.85413   0.60988   0.05988
C          C       0.14701   0.24265   0.59890   0.06358
C          C       0.77247   0.88622   0.72116  -0.12950
C          C       0.11165   0.88772   0.71934  -0.13060
C          C       0.11293   0.22454   0.70056  -0.12854
C          C       0.81566   0.90582   0.74581  -0.17894
C          C       0.09013   0.90935   0.74755  -0.18555
C          C       0.08927   0.18101   0.71772  -0.18200
C          C       0.84265   0.94374   0.67108   0.19685
C          C       0.05216   0.89734   0.66830   0.19941
C          C       0.09930   0.15396   0.63397   0.19574
C          C       0.82497   0.96074   0.57120  -0.15326
C          C       0.03623   0.86296   0.56257  -0.15779
C          C       0.13347   0.17195   0.53295  -0.15451
C          C       0.78201   0.94047   0.54397  -0.11780
C          C       0.05850   0.84247   0.53132  -0.11496
C          C       0.15632   0.21528   0.51383  -0.11653
C          C       0.54656   0.81571   0.51620  -0.11696
C          C       0.18971   0.73894   0.52631  -0.11802
C          C       0.27002   0.45377   0.52598  -0.11647
C          C       0.50427   0.78813   0.48401  -0.18362
C          C       0.21662   0.72325   0.50033  -0.18105
C          C       0.28423   0.49613   0.49745  -0.18433
C          C       0.49200   0.74983   0.87911   0.19679
C          C       0.25220   0.74509   0.90032   0.19764
C          C       0.25768   0.50919   0.88120   0.19961
C          C       0.52385   0.74526   0.80824  -0.15605
C          C       0.25750   0.78218   0.83366  -0.15599
C          C       0.21990   0.47655   0.81623  -0.15750
C          C       0.56581   0.77334   0.84455  -0.13095
C          C       0.22902   0.79582   0.86201  -0.13217
C          C       0.20655   0.43465   0.84737  -0.12980
C          C       0.95413   0.97522   0.72689   0.06198
C          C       0.02174   0.97854   0.71780   0.06156
C          C       0.01833   0.04307   0.69986   0.06128
C          C       0.97778   0.95512   0.73253  -0.14207
C          C       0.04174   0.02226   0.70331  -0.14115
C          C       0.97470   0.01942   0.71135  -0.14133
C          C       0.90829   0.94993   0.72109   0.07387
C          C       0.04615   0.95725   0.70328   0.07445
C          C       0.03926   0.08864   0.67665   0.07388
C          C       0.74176   0.09089   0.56862  -0.03936
C          C       0.91418   0.64752   0.54747  -0.03781
C          C       0.34815   0.25764   0.54486  -0.03718
C          C       0.77622   0.07925   0.56994  -0.00946
C          C       0.92467   0.69346   0.54932  -0.00969
C          C       0.30229   0.22225   0.54086  -0.01022
C          C       0.73021   0.01261   0.68270  -0.01810
C          C       0.99241   0.71861   0.66700  -0.02361
C          C       0.28015   0.26667   0.66831  -0.01940
C          C       0.72384   0.96898   0.70033  -0.01693
C          C       0.03527   0.75746   0.68233  -0.01532
C          C       0.24263   0.27241   0.68516  -0.01576
C          C       0.63969   0.02043   0.90098  -0.02728
C          C       0.97670   0.61085   0.88827  -0.02037
C          C       0.37449   0.35185   0.90819  -0.02473
C          C       0.67328   0.06487   0.95257  -0.01643
C          C       0.93426   0.60421   0.93692  -0.01363
C          C       0.38318   0.31689   0.95324  -0.01625
C          C       0.60427   0.95204   0.01527  -0.00798
C          C       0.04973   0.65254   0.95612  -0.00069
C          C       0.34842   0.39425   0.02411  -0.00560
C          C       0.61637   0.92421   0.58972  -0.01597
C          C       0.08345   0.69763   0.56483  -0.01797
C          C       0.30706   0.38179   0.60279  -0.01846
C          C       0.68618   0.90149   0.56129   0.10056
C          C       0.10081   0.78858   0.54224   0.10078
C          C       0.21491   0.31179   0.55443   0.09724
C          C       0.64320   0.87819   0.51870   0.10550
C          C       0.12506   0.77016   0.49769   0.10224
C          C       0.23528   0.35530   0.52059   0.10499
C          C       0.62219   0.83387   0.50292  -0.01847
C          C       0.16916   0.79437   0.49210  -0.01652
C          C       0.21256   0.37670   0.50705  -0.01806
C          C       0.64513   0.81362   0.53533  -0.14608
C          C       0.18805   0.83784   0.52721  -0.14742
C          C       0.16928   0.35357   0.53651  -0.14587
C          C       0.68708   0.83630   0.57904  -0.13907
C          C       0.16430   0.85620   0.56741  -0.13667
C          C       0.14941   0.31127   0.57332  -0.14093
C          C       0.70902   0.88069   0.59026  -0.01977
C          C       0.12026   0.83239   0.57590  -0.02033
C          C       0.17113   0.28883   0.57851  -0.01931
N          N       0.44942   0.72034   0.36695  -0.28112
N          N       0.28147   0.73228   0.37930  -0.28149
N          N       0.27003   0.54986   0.38574  -0.27934
N          N       0.88800   0.97128   0.17153  -0.28607
N          N       0.02756   0.91672   0.18059  -0.28412
N          N       0.08269   0.11277   0.15031  -0.28250
N          N       0.45008   0.71929   0.84788  -0.27712
N          N       0.28269   0.73375   0.87190  -0.28026
N          N       0.26854   0.55097   0.85403  -0.27607
N          N       0.88628   0.96731   0.68950  -0.28513
N          N       0.02811   0.91673   0.69061  -0.27890
N          N       0.07897   0.11022   0.65121  -0.27935
O          O       0.64279   0.98490   0.43029  -0.19938
O          O       0.01224   0.65003   0.48452  -0.21739
O          O       0.34394   0.35863   0.43890  -0.20090
O          O       0.62230   0.89894   0.47387  -0.21030
O          O       0.10484   0.72831   0.44642  -0.22071
O          O       0.27731   0.37655   0.48291  -0.21099
O          O       0.70262   0.94434   0.06072  -0.20699
O          O       0.05587   0.75737   0.04446  -0.21209
O          O       0.24273   0.29933   0.05117  -0.20690
O          O       0.76135   0.03416   0.07094  -0.22123
O          O       0.96708   0.72611   0.05119  -0.22267
O          O       0.26400   0.23401   0.06539  -0.22410
O          O       0.71287   0.06899   0.44269  -0.21026
O          O       0.93231   0.63909   0.41446  -0.21409
O          O       0.35564   0.28837   0.43011  -0.20706
O          O       0.64320   0.99027   0.99228  -0.20077
O          O       0.00734   0.63891  -0.00049  -0.22296
O          O       0.34635   0.35408   0.01575  -0.20358
O          O       0.62179   0.89781   0.96967  -0.22464
O          O       0.10453   0.72523   0.95227  -0.22320
O          O       0.27825   0.38078   0.97541  -0.22522
O          O       0.70423   0.94466   0.55877  -0.20612
O          O       0.05799   0.76183   0.53967  -0.20666
O          O       0.23956   0.29337   0.54826  -0.20666
O          O       0.76211   0.03527   0.57022  -0.21883
O          O       0.96809   0.72435   0.54849  -0.21816
O          O       0.27180   0.23515   0.54952  -0.21681
O          O       0.71393   0.06949   0.93838  -0.20860
O          O       0.93431   0.64295   0.92225  -0.21308
O          O       0.34612   0.27651   0.93650  -0.21372

