data_crystal

_audit_creation_method 'AiiDA-DDEC plugin'

_cell_length_a        35.22425
_cell_length_b        36.87092
_cell_length_c         7.98844

_cell_angle_alpha     89.39922
_cell_angle_beta     93.85558
_cell_angle_gamma     116.47333

_symmetry_space_group_name_Hall 'P 1'
_symmetry_space_group_name_H-M  'P 1'

loop_
_symmetry_equiv_pos_as_xyz
 'x,y,z'

loop_
_atom_site_label
_atom_site_type_symbol
_atom_site_fract_x
_atom_site_fract_y
_atom_site_fract_z
_atom_site_charge
H          H       0.43999   0.67659   0.03879   0.10860
H          H       0.55737   0.32059   0.04501   0.10866
H          H       0.48303   0.63935   0.08744   0.10300
H          H       0.51402   0.35619   0.09878   0.10438
H          H       0.38543   0.55073   0.36928   0.11307
H          H       0.61633   0.44252   0.42143   0.11287
H          H       0.34125   0.58759   0.31710   0.10412
H          H       0.66072   0.40756   0.36213   0.10031
H          H       0.48960   0.57942   0.17790   0.06695
H          H       0.50715   0.41341   0.20900   0.06561
H          H       0.53715   0.57321   0.35940   0.10758
H          H       0.46800   0.42439   0.41618   0.10569
H          H       0.41128   0.71573   0.17117   0.10588
H          H       0.59032   0.28147   0.18522   0.10659
H          H       0.32043   0.76514   0.24328   0.10694
H          H       0.68212   0.23578   0.27554   0.10880
H          H       0.35377   0.84009   0.26008   0.10406
H          H       0.65066   0.16090   0.28687   0.10180
H          H       0.45719   0.84585   0.98716   0.11141
H          H       0.54247   0.15127   0.97353   0.11343
H          H       0.42499   0.77049   0.97654   0.10556
H          H       0.57407   0.22658   0.96257   0.10653
H          H       0.41496   0.90543   0.22752   0.06953
H          H       0.59452   0.09363   0.20375   0.06338
H          H       0.53565   0.95999   0.98032   0.11822
H          H       0.45933   0.03873   0.13098   0.11921
H          H       0.42215   0.96350   0.12611   0.10904
H          H       0.57400   0.03571  -0.00283   0.10763
H          H       0.28779   0.70880   0.03856   0.10607
H          H       0.71004   0.29069   0.04735   0.10682
H          H       0.25431   0.58370   0.37194   0.10692
H          H       0.73991   0.41800   0.39755   0.10182
H          H       0.17751   0.54054   0.30361   0.10400
H          H       0.81411   0.45869   0.32148   0.10285
H          H       0.14678   0.62030   0.08104   0.11224
H          H       0.85164   0.37891   0.09117   0.11452
H          H       0.22376   0.66368   0.15092   0.10558
H          H       0.77681   0.33505   0.15757   0.10653
H          H       0.10402   0.52564   0.32031   0.06600
H          H       0.88733   0.47222   0.33190   0.06328
H          H       0.01880   0.57197   0.49478   0.11740
H          H       0.97790   0.42463   0.46010   0.11699
H          H       0.05419   0.47494   0.46052   0.10532
H          H       0.94253   0.52169   0.48996   0.10530
H          H       0.30302   0.59972   0.09124   0.10302
H          H       0.69472   0.39861   0.12123   0.10450
H          H       0.39409   0.47265   0.39036   0.10148
H          H       0.60960   0.52456   0.34250   0.10589
H          H       0.35955   0.40820   0.53282   0.13163
H          H       0.65200   0.59543   0.42808   0.13187
H          H       0.41066   0.40566   0.56750   0.13020
H          H       0.60388   0.59968   0.48216   0.13189
H          H       0.44088   0.67957   0.54679   0.10630
H          H       0.55908   0.32296   0.55633   0.10962
H          H       0.48469   0.64301   0.59693   0.10435
H          H       0.51656   0.35939   0.61229   0.10299
H          H       0.38583   0.55216   0.86664   0.11321
H          H       0.62104   0.44661   0.92351   0.11429
H          H       0.34125   0.58844   0.81420   0.10368
H          H       0.66411   0.41053   0.86440   0.09931
H          H       0.49180   0.58338   0.68749   0.06699
H          H       0.51046   0.41622   0.71506   0.06313
H          H       0.53779   0.57538   0.85785   0.10765
H          H       0.46992   0.42676   0.92178   0.10471
H          H       0.41173   0.71786   0.67674   0.10526
H          H       0.59187   0.28384   0.68675   0.10562
H          H       0.32274   0.76724   0.75003   0.10818
H          H       0.68317   0.23530   0.76035   0.10990
H          H       0.35602   0.84224   0.76261   0.10266
H          H       0.64904   0.16023   0.76829   0.10293
H          H       0.45809   0.84714   0.48222   0.11279
H          H       0.53845   0.15525   0.48712   0.11460
H          H       0.42586   0.77173   0.47659   0.10618
H          H       0.57286   0.23067   0.47654   0.10693
H          H       0.41636   0.90647   0.72946   0.06355
H          H       0.59107   0.09443   0.68485   0.06476
H          H       0.52986   0.96572   0.42842   0.11743
H          H       0.45788   0.03832   0.68406   0.12012
H          H       0.42308   0.96330   0.66808   0.10818
H          H       0.56560   0.04138   0.45072   0.10367
H          H       0.28895   0.71103   0.53328   0.10629
H          H       0.71077   0.29196   0.54444   0.10614
H          H       0.25375   0.58405   0.85700   0.10321
H          H       0.73727   0.41640   0.89583   0.09859
H          H       0.17701   0.54104   0.78710   0.10250
H          H       0.81153   0.45916   0.82640   0.10383
H          H       0.14761   0.62385   0.57117   0.11409
H          H       0.85227   0.37724   0.58797   0.11584
H          H       0.22476   0.66767   0.63849   0.10665
H          H       0.77765   0.33572   0.66167   0.10556
H          H       0.10289   0.52392   0.81747   0.06576
H          H       0.88625   0.47583   0.85006   0.06447
H          H       0.02001   0.57229   0.00520   0.11735
H          H       0.97449   0.42427   0.95794   0.11723
H          H       0.05121   0.47297   0.95094   0.10655
H          H       0.94325   0.52362   0.00624   0.10500
H          H       0.30356   0.60177   0.59309   0.10192
H          H       0.69686   0.40054   0.62279   0.10292
H          H       0.39611   0.47623   0.89589   0.09993
H          H       0.61013   0.52744   0.83236   0.10342
H          H       0.35771   0.40760   0.99480   0.13064
H          H       0.65296   0.59795   0.92439   0.13256
H          H       0.40713   0.40173   0.02277   0.12949
H          H       0.60504   0.60141   0.98751   0.13215
C          C       0.38732   0.63470   0.17359   0.06807
C          C       0.61239   0.36196   0.19782   0.06930
C          C       0.42812   0.64950   0.11410  -0.13727
C          C       0.57021   0.34692   0.12946  -0.13734
C          C       0.45229   0.62837   0.14075  -0.12260
C          C       0.54589   0.36706   0.15955  -0.12751
C          C       0.43693   0.59235   0.23155   0.04902
C          C       0.56264   0.40225   0.26185   0.04877
C          C       0.39664   0.57813   0.29593  -0.09975
C          C       0.60421   0.41626   0.33681  -0.09539
C          C       0.37221   0.59872   0.26572  -0.13625
C          C       0.62875   0.39677   0.30289  -0.13636
C          C       0.46218   0.57009   0.25518   0.07169
C          C       0.53784   0.42446   0.28325   0.06821
C          C       0.47771   0.52017   0.37612   0.15992
C          C       0.52691   0.47724   0.38750   0.16071
C          C       0.45784   0.47778   0.40666   0.05618
C          C       0.54766   0.52037   0.38419   0.05351
C          C       0.52210   0.54049   0.37264  -0.21896
C          C       0.48297   0.45717   0.40438  -0.22583
C          C       0.36028   0.65538   0.13575   0.07752
C          C       0.63921   0.34238   0.15624   0.07938
C          C       0.37750   0.69780   0.13790  -0.18301
C          C       0.62278   0.30003   0.15224  -0.18367
C          C       0.37040   0.76222   0.11026   0.06470
C          C       0.63030   0.23650   0.11931   0.06980
C          C       0.35019   0.78260   0.18544  -0.13616
C          C       0.65185   0.21729   0.20712  -0.14006
C          C       0.36900   0.82482   0.19513  -0.12456
C          C       0.63401   0.17514   0.21360  -0.12643
C          C       0.40793   0.84803   0.12460   0.05114
C          C       0.59419   0.15095   0.13051   0.04714
C          C       0.42762   0.82769   0.04497  -0.09978
C          C       0.57285   0.17020   0.04033  -0.09949
C          C       0.40951   0.78565   0.04027  -0.13269
C          C       0.59052   0.21214   0.03553  -0.13271
C          C       0.42761   0.89223   0.13639   0.06642
C          C       0.57525   0.10677   0.13763   0.06590
C          C       0.47716   0.95652   0.05823   0.19709
C          C       0.51940   0.04231   0.07109   0.20081
C          C       0.51981   0.97772   0.01829  -0.14194
C          C       0.47605   0.02113   0.10255  -0.14761
C          C       0.45552   0.97910   0.09988  -0.16600
C          C       0.54101   0.01985   0.02826  -0.17980
C          C       0.35164   0.71745   0.10580   0.07856
C          C       0.64828   0.28116   0.11688   0.07736
C          C       0.30789   0.69384   0.06830  -0.18222
C          C       0.69057   0.30523   0.08052  -0.18368
C          C       0.24440   0.62673   0.01059   0.06606
C          C       0.75157   0.37274   0.03287   0.06937
C          C       0.23107   0.59235   0.41811  -0.13733
C          C       0.76441   0.40905   0.44039  -0.13793
C          C       0.18789   0.56816   0.37906  -0.12537
C          C       0.80606   0.43188   0.39741  -0.12519
C          C       0.15736   0.57905   0.43581   0.05267
C          C       0.83811   0.42059   0.45042   0.05051
C          C       0.17056   0.61301   0.03093  -0.10295
C          C       0.82604   0.38625   0.04696  -0.10748
C          C       0.21360   0.63724   0.06850  -0.13190
C          C       0.78430   0.36196   0.08306  -0.13045
C          C       0.11227   0.55147   0.40706   0.06832
C          C       0.88202   0.44655   0.41461   0.06968
C          C       0.04150   0.52709   0.47047   0.20474
C          C       0.95498   0.46967   0.46795   0.20467
C          C       0.00942   0.53971   0.48176  -0.14516
C          C       0.98717   0.45698   0.46240  -0.14535
C          C       0.02955   0.48512   0.46114  -0.17435
C          C       0.96694   0.51163   0.47761  -0.17405
C          C       0.29002   0.65136   0.05907   0.07889
C          C       0.70756   0.34767   0.07814   0.07786
C          C       0.31654   0.63262   0.09526  -0.18900
C          C       0.68163   0.36573   0.11900  -0.18776
C          C       0.41251   0.45688   0.43437  -0.06085
C          C       0.59401   0.54227   0.38371  -0.05550
C          C       0.39334   0.42166   0.51384  -0.31700
C          C       0.61764   0.58113   0.43290  -0.32388
C          C       0.38785   0.63666   0.67639   0.06760
C          C       0.61489   0.36450   0.70440   0.06868
C          C       0.42900   0.65210   0.61975  -0.13480
C          C       0.57245   0.34954   0.63944  -0.13302
C          C       0.45350   0.63132   0.64703  -0.12337
C          C       0.54863   0.37008   0.67077  -0.12588
C          C       0.43796   0.59487   0.73510   0.05063
C          C       0.56603   0.40563   0.77079   0.05181
C          C       0.39720   0.57990   0.79557  -0.09812
C          C       0.60793   0.41971   0.84222  -0.09594
C          C       0.37253   0.60022   0.76521  -0.13391
C          C       0.63190   0.39964   0.80768  -0.13539
C          C       0.46338   0.57283   0.75961   0.06930
C          C       0.54089   0.42756   0.79133   0.07122
C          C       0.47846   0.52221   0.87699   0.16201
C          C       0.52840   0.47974   0.89128   0.15980
C          C       0.45889   0.47975   0.90673   0.05256
C          C       0.54862   0.52283   0.88425   0.05923
C          C       0.52287   0.54272   0.87291  -0.22176
C          C       0.48450   0.45949   0.90788  -0.22177
C          C       0.36088   0.65732   0.63834   0.07755
C          C       0.64124   0.34462   0.66000   0.07815
C          C       0.37813   0.69973   0.64075  -0.18240
C          C       0.62440   0.30228   0.65452  -0.18244
C          C       0.37162   0.76412   0.61065   0.06595
C          C       0.63039   0.23833   0.61837   0.06971
C          C       0.35194   0.78460   0.68851  -0.13866
C          C       0.65182   0.21789   0.69751  -0.13806
C          C       0.37088   0.82677   0.69681  -0.12267
C          C       0.63252   0.17567   0.70252  -0.12537
C          C       0.40934   0.84977   0.62259   0.05051
C          C       0.59130   0.15275   0.62813   0.04912
C          C       0.42878   0.82929   0.54225  -0.10020
C          C       0.56999   0.17322   0.54731  -0.09996
C          C       0.41054   0.78724   0.53909  -0.13469
C          C       0.58922   0.21519   0.54279  -0.13289
C          C       0.42840   0.89392   0.63343   0.06692
C          C       0.57120   0.10853   0.63322   0.06863
C          C       0.47512   0.95904   0.55340   0.19251
C          C       0.51466   0.04477   0.57510   0.20321
C          C       0.51504   0.98191   0.48923  -0.14127
C          C       0.47374   0.02205   0.63170  -0.15248
C          C       0.45463   0.98006   0.62318  -0.16464
C          C       0.53495   0.02404   0.50250  -0.18129
C          C       0.35247   0.71941   0.60607   0.07793
C          C       0.64940   0.28301   0.61725   0.07617
C          C       0.30880   0.69598   0.56623  -0.18303
C          C       0.69173   0.30671   0.58065  -0.18178
C          C       0.24518   0.62863   0.51177   0.06615
C          C       0.75321   0.37371   0.53395   0.06856
C          C       0.23039   0.59174   0.90855  -0.13664
C          C       0.76221   0.40819   0.94044  -0.13747
C          C       0.18720   0.56765   0.86870  -0.12511
C          C       0.80395   0.43222   0.90107  -0.12723
C          C       0.15652   0.57739   0.93232   0.05044
C          C       0.83665   0.42202   0.95635   0.05086
C          C       0.17141   0.61580   0.52643  -0.10368
C          C       0.82713   0.38533   0.54480  -0.10658
C          C       0.21449   0.64017   0.56261  -0.13163
C          C       0.78543   0.36226   0.58458  -0.13048
C          C       0.11135   0.54984   0.90393   0.06993
C          C       0.88069   0.44891   0.92506   0.06566
C          C       0.04059   0.52626   0.97007   0.20456
C          C       0.95367   0.47064   0.97395   0.20274
C          C       0.00952   0.53992   0.98856  -0.14394
C          C       0.98484   0.45682   0.96212  -0.14316
C          C       0.02743   0.48409   0.95733  -0.17290
C          C       0.96680   0.51275   0.98790  -0.17434
C          C       0.29078   0.65346   0.55932   0.07658
C          C       0.70914   0.34921   0.57962   0.07847
C          C       0.31718   0.63467   0.59732  -0.18615
C          C       0.68360   0.36765   0.62125  -0.18561
C          C       0.41325   0.45851   0.92778  -0.05545
C          C       0.59487   0.54486   0.87968  -0.05571
C          C       0.39186   0.42072   0.98411  -0.31769
C          C       0.61868   0.58341   0.93229  -0.32339
N          N       0.45214   0.54025   0.35721  -0.27976
N          N       0.55183   0.45670   0.37747  -0.27397
N          N       0.45888   0.91415   0.04725  -0.29862
N          N       0.53732   0.08453   0.07281  -0.27509
N          N       0.08375   0.55666   0.48300  -0.28987
N          N       0.91315   0.44044   0.48047  -0.28206
N          N       0.45264   0.54205   0.85697  -0.28123
N          N       0.55403   0.45975   0.88524  -0.27136
N          N       0.45798   0.91666   0.53872  -0.29776
N          N       0.53189   0.08698   0.58228  -0.27476
N          N       0.08307   0.55525   0.98070  -0.29088
N          N       0.91165   0.44186   0.98572  -0.28222

