data_crystal

_audit_creation_method 'AiiDA-DDEC plugin'

_cell_length_a        40.80287
_cell_length_b        43.61311
_cell_length_c         8.16455

_cell_angle_alpha     91.96264
_cell_angle_beta     109.87726
_cell_angle_gamma     120.45609

_symmetry_space_group_name_Hall 'P 1'
_symmetry_space_group_name_H-M  'P 1'

loop_
_symmetry_equiv_pos_as_xyz
 'x,y,z'

loop_
_atom_site_label
_atom_site_type_symbol
_atom_site_fract_x
_atom_site_fract_y
_atom_site_fract_z
_atom_site_charge
H          H       0.76909   0.32397   0.17013   0.10133
H          H       0.80528   0.34406   0.03841   0.05859
H          H       0.87437   0.36016   0.11477   0.10296
H          H       0.94363   0.39922   0.11039   0.10444
H          H       0.91050   0.47395   0.90659   0.10678
H          H       0.84190   0.43575   0.92290   0.11881
H          H       0.98039   0.41794   0.96022   0.10152
H          H       0.15782   0.29561   0.06865   0.10322
H          H       0.11999   0.32453   0.08777   0.11378
H          H       0.19383   0.41197   0.88599   0.11006
H          H       0.23020   0.38287   0.86053   0.09806
H          H       0.14395   0.41786   0.82477   0.06695
H          H       0.13819   0.47096   0.84700   0.10416
H          H       0.09927   0.49740   0.87760   0.10748
H          H       0.02234   0.40250   0.03581   0.10376
H          H       0.06196   0.37626   0.00479   0.11441
H          H       0.08501   0.52483   0.01675   0.10337
H          H       0.26025   0.80449   0.09077   0.10572
H          H       0.22402   0.73901   0.09443   0.11964
H          H       0.12201   0.74191   0.11717   0.10848
H          H       0.15696   0.80667   0.10669   0.10827
H          H       0.09154   0.68366   0.94065   0.06353
H          H       0.03142   0.62186   0.83718   0.10314
H          H       0.99697   0.55586   0.83846   0.11058
H          H       0.11132   0.57953   0.25518   0.10829
H          H       0.14578   0.64597   0.25465   0.11792
H          H       0.97709   0.51383   0.04826   0.10535
H          H       0.75822   0.41443   0.90537   0.10226
H          H       0.67383   0.39925   0.88302   0.12784
H          H       0.71265   0.43677   0.82053   0.13250
H          H       0.65997   0.35068   0.96858   0.10744
H          H       0.60345   0.30024   0.86206   0.06472
H          H       0.53565   0.28674   0.80719   0.10560
H          H       0.46552   0.24581   0.80347   0.10724
H          H       0.50872   0.18563   0.11360   0.10687
H          H       0.57938   0.22761   0.12250   0.11625
H          H       0.43063   0.23284   0.96826   0.10192
H          H       0.27468   0.36977   0.96556   0.10491
H          H       0.31290   0.34081   0.95298   0.11903
H          H       0.20871   0.23615   0.91955   0.10792
H          H       0.16964   0.26426   0.92256   0.10572
H          H       0.26166   0.23138   0.06371   0.06846
H          H       0.26979   0.17990   0.06240   0.10533
H          H       0.31009   0.15368   0.05293   0.10555
H          H       0.39080   0.24839   0.90502   0.10430
H          H       0.35073   0.27494   0.92130   0.11371
H          H       0.33083   0.12831   0.96209   0.10101
H          H       0.19772   0.86237   0.20097   0.09781
H          H       0.23025   0.92644   0.17349   0.12312
H          H       0.30563   0.91203   0.95767   0.10221
H          H       0.27258   0.84878   0.97666   0.10535
H          H       0.33203   0.96644   0.97248   0.06389
H          H       0.38160   0.02107   0.92805   0.10393
H          H       0.41138   0.08524   0.91166   0.10428
H          H       0.31916   0.08592   0.05497   0.10281
H          H       0.28864   0.02108   0.06250   0.11302
H          H       0.44211   0.14061   0.96142   0.10682
H          H       0.67237   0.26104   0.23814   0.10206
H          H       0.71514   0.23565   0.29575   0.13281
H          H       0.74960   0.26965   0.20345   0.12528
H          H       0.77205   0.32441   0.67347   0.10112
H          H       0.80865   0.34468   0.54461   0.05951
H          H       0.87796   0.36115   0.61697   0.10225
H          H       0.94713   0.40084   0.61052   0.10514
H          H       0.91201   0.47418   0.40349   0.10677
H          H       0.84382   0.43556   0.42213   0.11878
H          H       0.98221   0.41908   0.45144   0.10078
H          H       0.13879   0.28226   0.46005   0.10520
H          H       0.10039   0.31110   0.47120   0.11908
H          H       0.20285   0.41510   0.48782   0.10932
H          H       0.24212   0.38727   0.48589   0.10529
H          H       0.14898   0.41902   0.34616   0.06806
H          H       0.14160   0.47110   0.35490   0.10531
H          H       0.10313   0.49849   0.38074   0.10908
H          H       0.02236   0.40303   0.52369   0.10878
H          H       0.06091   0.37563   0.49431   0.11368
H          H       0.08749   0.52609   0.51440   0.10466
H          H       0.25008   0.79930   0.48460   0.09996
H          H       0.21626   0.73497   0.50529   0.12231
H          H       0.13838   0.74822   0.70564   0.10449
H          H       0.17346   0.81295   0.69582   0.10645
H          H       0.09513   0.68751   0.47261   0.06603
H          H       0.03457   0.62464   0.35232   0.10463
H          H      -0.00025   0.55837   0.34616   0.10772
H          H       0.11412   0.58021   0.75439   0.10792
H          H       0.14901   0.64689   0.76079   0.11537
H          H       0.97967   0.51506   0.54811   0.10370
H          H       0.76029   0.41463   0.40534   0.10086
H          H       0.67667   0.39970   0.39276   0.12797
H          H       0.71461   0.43687   0.32532   0.13253
H          H       0.66272   0.35078   0.46991   0.10794
H          H       0.60663   0.30116   0.36607   0.06536
H          H       0.53935   0.28889   0.31524   0.10547
H          H       0.46894   0.24786   0.30681   0.10557
H          H       0.51063   0.18622   0.61103   0.10772
H          H       0.58159   0.22808   0.62276   0.11707
H          H       0.43227   0.23351   0.46258   0.10309
H          H       0.25590   0.35686   0.35399   0.10312
H          H       0.29387   0.32818   0.33542   0.11293
H          H       0.21845   0.23939   0.52601   0.10959
H          H       0.18186   0.26832   0.55177   0.09917
H          H       0.26776   0.23352   0.58850   0.06511
H          H       0.27467   0.18158   0.57969   0.10565
H          H       0.31476   0.15559   0.56560   0.10581
H          H       0.39087   0.24810   0.39161   0.10159
H          H       0.35019   0.27407   0.40797   0.11480
H          H       0.33310   0.12880   0.45832   0.10020
H          H       0.18611   0.85683   0.58605   0.10626
H          H       0.22263   0.92254   0.58813   0.12075
H          H       0.32613   0.92086   0.57623   0.10835
H          H       0.29102   0.85615   0.58138   0.10384
H          H       0.33213   0.96568   0.45053   0.06220
H          H       0.38385   0.02175   0.41372   0.10440
H          H       0.41281   0.08575   0.39545   0.10398
H          H       0.32384   0.08726   0.56165   0.10380
H          H       0.29431   0.02267   0.57382   0.11366
H          H       0.44485   0.14182   0.45957   0.10656
H          H       0.67564   0.26185   0.74415   0.10117
H          H       0.71867   0.23682   0.80614   0.13321
H          H       0.75330   0.27055   0.71364   0.12793
C          C       0.72107   0.36787   0.99166   0.05064
C          C       0.75211   0.35943   0.04625   0.16147
C          C       0.74438   0.32894   0.11830  -0.20212
C          C       0.81369   0.37213   0.03149   0.07194
C          C       0.85362   0.39562   0.02157   0.05548
C          C       0.88236   0.38516   0.06906  -0.13095
C          C       0.92130   0.40711   0.06589  -0.13707
C          C       0.93267   0.43987   0.01060   0.06978
C          C       0.90324   0.44970   0.95840  -0.12903
C          C       0.86467   0.42832   0.96544  -0.10077
C          C       0.97413   0.46306   0.00813   0.07976
C          C       0.99575   0.44759   0.98556  -0.17742
C          C       0.19650   0.33642   0.95920   0.05277
C          C       0.16486   0.32039   0.02226  -0.13137
C          C       0.14368   0.33661   0.03483  -0.14842
C          C       0.15280   0.36941   0.98227   0.19897
C          C       0.18528   0.38621   0.92416  -0.16770
C          C       0.20640   0.36994   0.91235  -0.12823
C          C       0.12761   0.40732   0.91283   0.06839
C          C       0.10338   0.42206   0.92834   0.04929
C          C       0.11324   0.45623   0.89154  -0.12358
C          C       0.09122   0.47119   0.90962  -0.14028
C          C       0.05790   0.45236   0.96124   0.06666
C          C       0.04726   0.41749   0.99161  -0.13272
C          C       0.06964   0.40273   0.97672  -0.11357
C          C       0.03572   0.46907   0.98747   0.07098
C          C       0.05407   0.50720   0.01407  -0.18176
C          C       0.21147   0.81109   0.09688   0.05534
C          C       0.22963   0.79096   0.09345  -0.12264
C          C       0.20960   0.75416   0.09638  -0.15527
C          C       0.16995   0.73548   0.09984   0.20235
C          C       0.15166   0.75534   0.10510  -0.17777
C          C       0.17206   0.79221   0.10335  -0.12053
C          C       0.11187   0.67598   0.02913   0.07028
C          C       0.09128   0.63804   0.04291   0.04451
C          C       0.04883   0.61261   0.92990  -0.12430
C          C       0.02943   0.57560   0.93078  -0.14245
C          C       0.05207   0.56302   0.04347   0.07509
C          C       0.09412   0.58887   0.16210  -0.13442
C          C       0.11342   0.62581   0.16281  -0.10141
C          C       0.03271   0.52328   0.03052   0.07255
C          C       0.99288   0.50108   0.02791  -0.18170
C          C       0.72880   0.39993   0.91965  -0.05643
C          C       0.70365   0.41245   0.87243  -0.32296
C          C       0.70683   0.30519   0.13204   0.05194
C          C       0.67503   0.31264   0.06923   0.16049
C          C       0.68358   0.34424   0.00674  -0.20346
C          C       0.60321   0.28490   0.96633   0.06930
C          C       0.56248   0.26031   0.96820   0.05085
C          C       0.52985   0.26501   0.87757  -0.13085
C          C       0.49044   0.24194   0.87506  -0.13599
C          C       0.48174   0.21259   0.95739   0.06674
C          C       0.51434   0.20751   0.04458  -0.12821
C          C       0.55408   0.23114   0.05181  -0.11371
C          C       0.44008   0.18885   0.95787   0.07898
C          C       0.41685   0.20378   0.96226  -0.17898
C          C       0.21925   0.31944   0.94829   0.05799
C          C       0.25985   0.34041   0.95456  -0.12301
C          C       0.28173   0.32449   0.94965  -0.15216
C          C       0.26445   0.28695   0.94353   0.20554
C          C       0.22353   0.26557   0.93314  -0.16723
C          C       0.20151   0.28153   0.93461  -0.12140
C          C       0.28333   0.24465  -0.00061   0.06666
C          C       0.30720   0.22916   0.99005   0.04788
C          C       0.29604   0.19470   0.02552  -0.12154
C          C       0.31886   0.17982   0.01903  -0.13472
C          C       0.35373   0.19865   0.97702   0.06558
C          C       0.36487   0.23340   0.94329  -0.12912
C          C       0.34227   0.24838   0.94989  -0.10968
C          C       0.37758   0.18255   0.96715   0.06905
C          C       0.36183   0.14547   0.96560  -0.18299
C          C       0.23218   0.84993   0.09025   0.05198
C          C       0.22064   0.87274   0.14365  -0.13102
C          C       0.23908   0.90894   0.13048  -0.15077
C          C       0.27031   0.92439   0.06485   0.18962
C          C       0.28247   0.90187   0.01373  -0.16817
C          C       0.26369   0.86563   0.02571  -0.12947
C          C       0.31633   0.97850   0.00540   0.06968
C          C       0.33277   0.01642   0.99494   0.05576
C          C       0.36806   0.03550   0.95642  -0.12538
C          C       0.38508   0.07201   0.94879  -0.12985
C          C       0.36764   0.09117   0.98032   0.06035
C          C       0.33257   0.07185   0.02172  -0.13164
C          C       0.31526   0.03538   0.02784  -0.09898
C          C       0.38473   0.12977   0.96904   0.07548
C          C       0.42386   0.15198   0.96313  -0.17647
C          C       0.69958   0.27349   0.20671  -0.05704
C          C       0.72280   0.25905   0.23693  -0.32695
C          C       0.72389   0.36815   0.49435   0.05252
C          C       0.75495   0.35972   0.54841   0.15933
C          C       0.74729   0.32931   0.62112  -0.20426
C          C       0.81672   0.37255   0.53464   0.07023
C          C       0.85647   0.39607   0.52299   0.05554
C          C       0.88560   0.38604   0.57042  -0.12873
C          C       0.92436   0.40823   0.56564  -0.13904
C          C       0.93511   0.44077   0.50845   0.07369
C          C       0.90529   0.45013   0.45643  -0.12958
C          C       0.86693   0.42852   0.46504  -0.10304
C          C       0.97639   0.46419   0.50424   0.07809
C          C       0.99786   0.44877   0.47927  -0.18063
C          C       0.19350   0.33232   0.46936   0.05784
C          C       0.15327   0.31144   0.46707  -0.12489
C          C       0.13124   0.32723   0.47108  -0.15073
C          C       0.14789   0.36450   0.47228   0.20376
C          C       0.18845   0.38584   0.47870  -0.16885
C          C       0.21064   0.37002   0.47814  -0.12007
C          C       0.12801   0.40612   0.41391   0.06788
C          C       0.10443   0.42171   0.42693   0.04940
C          C       0.11588   0.45648   0.39512  -0.12161
C          C       0.09412   0.47197   0.41050  -0.13971
C          C       0.05988   0.45327   0.45652   0.06485
C          C       0.04796   0.41794   0.48336  -0.13315
C          C       0.06972   0.40250   0.46935  -0.11323
C          C       0.03790   0.47026   0.48195   0.07549
C          C       0.05643   0.50845   0.51046  -0.18404
C          C       0.21426   0.81160   0.58624   0.04205
C          C       0.22620   0.78876   0.53659  -0.12656
C          C       0.20715   0.75238   0.54663  -0.16262
C          C       0.17404   0.73669   0.60069   0.20387
C          C       0.16201   0.75921   0.65209  -0.18316
C          C       0.18206   0.79589   0.64626  -0.12497
C          C       0.11549   0.67838   0.54468   0.07462
C          C       0.09455   0.64008   0.55438   0.04394
C          C       0.05195   0.61500   0.44199  -0.12652
C          C       0.03234   0.57775   0.43816  -0.13841
C          C       0.05481   0.56448   0.54583   0.07439
C          C       0.09699   0.58996   0.66418  -0.13432
C          C       0.11654   0.62712   0.66896  -0.10027
C          C       0.03517   0.52456   0.52870   0.07294
C          C       0.99528   0.50227   0.52577  -0.18018
C          C       0.73124   0.40018   0.42256  -0.05615
C          C       0.70607   0.41271   0.37842  -0.32067
C          C       0.70983   0.30563   0.63576   0.05064
C          C       0.67788   0.31289   0.57187   0.16380
C          C       0.68639   0.34443   0.50898  -0.20393
C          C       0.60623   0.28569   0.46982   0.06944
C          C       0.56542   0.26144   0.47146   0.04945
C          C       0.53318   0.26670   0.38257  -0.12931
C          C       0.49357   0.24361   0.37782  -0.13432
C          C       0.48429   0.21379   0.45686   0.07028
C          C       0.51663   0.20838   0.54384  -0.13142
C          C       0.55653   0.23192   0.55269  -0.11117
C          C       0.44239   0.18987   0.45452   0.07644
C          C       0.41879   0.20451   0.45720  -0.17956
C          C       0.21638   0.31544   0.45866   0.05142
C          C       0.24845   0.33180   0.39818  -0.13004
C          C       0.26969   0.31566   0.38546  -0.14788
C          C       0.26016   0.28252   0.43481   0.19935
C          C       0.22728   0.26542   0.49049  -0.16903
C          C       0.20614   0.28164   0.50278  -0.12662
C          C       0.28473   0.24423   0.50280   0.06818
C          C       0.30905   0.22938   0.49081   0.04825
C          C       0.29964   0.19584   0.53487  -0.12547
C          C       0.32236   0.18104   0.52552  -0.13686
C          C       0.35581   0.19924   0.47417   0.06055
C          C       0.36571   0.23339   0.43469  -0.12924
C          C       0.34280   0.24808   0.44183  -0.11042
C          C       0.37960   0.18314   0.46267   0.07017
C          C       0.36408   0.14607   0.46152  -0.17841
C          C       0.23507   0.85049   0.57959   0.06037
C          C       0.21670   0.87039   0.58288  -0.12618
C          C       0.23688   0.90737   0.58334  -0.14574
C          C       0.27605   0.92636   0.57495   0.19405
C          C       0.29518   0.90697   0.57589  -0.17550
C          C       0.27505   0.87006   0.57809  -0.12179
C          C       0.32013   0.97945   0.50335   0.07604
C          C       0.33689   0.01755   0.49453   0.05234
C          C       0.37089   0.03630   0.44739  -0.12415
C          C       0.38752   0.07276   0.43888  -0.13318
C          C       0.37066   0.09204   0.47628   0.06449
C          C       0.33675   0.07301   0.52493  -0.13587
C          C       0.32010   0.03672   0.53380  -0.09749
C          C       0.38721   0.13059   0.46471   0.07218
C          C       0.42638   0.15302   0.45974  -0.17293
C          C       0.70284   0.27425   0.71280  -0.05455
C          C       0.72631   0.26001   0.74575  -0.33287
N          N       0.78970   0.38316   0.03195  -0.27894
N          N       0.12906   0.38312  -0.00319  -0.29587
N          N       0.15189   0.69892   0.10979  -0.28545
N          N       0.63681   0.28801   0.07661  -0.27415
N          N       0.28847   0.27306   0.93867  -0.29708
N          N       0.28589   0.96086   0.05397  -0.30045
N          N       0.79244   0.38337   0.53313  -0.27733
N          N       0.12367   0.37814   0.47736  -0.29621
N          N       0.15568   0.69994   0.60890  -0.28099
N          N       0.63962   0.28837   0.57918  -0.27419
N          N       0.28394   0.26883   0.42045  -0.29445
N          N       0.29233   0.96301   0.56729  -0.30157

