data_crystal

_audit_creation_method 'AiiDA-DDEC plugin'

_cell_length_a        47.08454
_cell_length_b        47.11118
_cell_length_c         8.09474

_cell_angle_alpha     112.19668
_cell_angle_beta     70.67707
_cell_angle_gamma     120.36050

_symmetry_space_group_name_Hall 'P 1'
_symmetry_space_group_name_H-M  'P 1'

loop_
_symmetry_equiv_pos_as_xyz
 'x,y,z'

loop_
_atom_site_label
_atom_site_type_symbol
_atom_site_fract_x
_atom_site_fract_y
_atom_site_fract_z
_atom_site_charge
H          H       0.58334   0.56998   0.30845   0.10039
H          H       0.43551   0.02606   0.36582   0.11024
H          H       0.98657   0.42894   0.32983   0.10310
H          H       0.42519   0.45259   0.39652   0.10336
H          H       0.55169   0.98993   0.36832   0.09960
H          H       0.01767   0.58255   0.31586   0.10875
H          H       0.62887   0.56444   0.34165   0.10475
H          H       0.43995   0.08230   0.40658   0.10589
H          H       0.93144   0.38338   0.39573   0.10851
H          H       0.37391   0.45761   0.44180   0.10736
H          H       0.54254   0.93634   0.39905   0.10523
H          H       0.06912   0.63279   0.38245   0.10880
H          H       0.56716   0.45925   0.31822   0.11815
H          H       0.54626   0.12179   0.28445   0.11825
H          H       0.88640   0.43394   0.30735   0.11246
H          H       0.43091   0.55017   0.28274   0.11520
H          H       0.44766   0.88674   0.24065   0.11399
H          H       0.11518   0.57080   0.32569   0.11726
H          H       0.43943   0.42880   0.11278   0.10616
H          H       0.57345   0.99914   0.12914   0.11043
H          H       0.00351   0.56011   0.08655   0.09835
H          H       0.57584   0.57421   0.12689   0.09748
H          H       0.43322   0.99722   0.10304   0.10200
H          H       0.01236   0.42594   0.05588   0.10780
H          H       0.43426   0.37248   0.08345   0.12238
H          H       0.62899   0.04727   0.11708   0.11810
H          H       0.95375   0.56504   0.09056   0.12046
H          H       0.57973   0.62682   0.11774   0.11817
H          H       0.37854   0.94749   0.07503   0.12481
H          H       0.06192   0.41948   0.04666   0.11865
H          H       0.52747   0.41983   0.26418   0.10709
H          H       0.58470   0.11518   0.26997   0.10708
H          H       0.89122   0.47247   0.25398   0.10300
H          H       0.47376   0.58592   0.23473   0.10434
H          H       0.41354   0.89054   0.19362   0.10665
H          H       0.11167   0.52644   0.28394   0.10847
H          H       0.66486   0.54683   0.24366   0.06050
H          H       0.45493   0.11829   0.23871   0.05788
H          H       0.89090   0.34137   0.23027   0.06027
H          H       0.34240   0.45548   0.26465   0.05823
H          H       0.53968   0.88660   0.22872   0.05970
H          H       0.11873   0.65773   0.23928   0.06216
H          H       0.72131   0.56910   0.23536   0.10283
H          H       0.43264   0.15087   0.21193   0.10280
H          H       0.85792   0.28286   0.13327   0.10097
H          H       0.28911   0.42999   0.18841   0.10033
H          H       0.56343   0.85036   0.15346   0.10139
H          H       0.14773   0.71588   0.25763   0.10571
H          H       0.77125   0.56325   0.22586   0.10629
H          H       0.43776   0.20502   0.20119   0.10698
H          H       0.80307   0.23192   0.11647   0.10800
H          H       0.24039   0.43314   0.15718   0.10669
H          H       0.56236   0.79669   0.14517   0.10742
H          H       0.20130   0.76744   0.24255   0.10800
H          H       0.70811   0.46766   0.36613   0.10755
H          H       0.53452   0.25744   0.35680   0.09922
H          H       0.75339   0.29451   0.46944   0.10473
H          H       0.28419   0.54094   0.39780   0.10056
H          H       0.46111   0.76514   0.43258   0.10631
H          H       0.24952   0.71974   0.34290   0.10471
H          H       0.65800   0.47389   0.37697   0.11553
H          H       0.52917   0.20285   0.36800   0.11176
H          H       0.80865   0.34583   0.48591   0.11419
H          H       0.33374   0.53797   0.42311   0.11212
H          H       0.46225   0.81924   0.44080   0.11324
H          H       0.19508   0.66839   0.36602   0.11351
H          H       0.75208   0.45731   0.13139   0.10613
H          H       0.54390   0.28897   0.18527   0.10666
H          H       0.71875   0.25452   0.22493   0.10827
H          H       0.25595   0.54006   0.22859   0.10434
H          H       0.46292   0.71424   0.16258   0.10665
H          H       0.28939   0.74576   0.12561   0.10453
H          H       0.80421   0.45118   0.07110   0.10444
H          H       0.54885   0.33933   0.12662   0.10249
H          H       0.66636   0.20209   0.16291   0.10570
H          H       0.20692   0.54123   0.18458   0.10444
H          H       0.46294   0.65837   0.09401   0.10433
H          H       0.34282   0.79371   0.04181   0.10147
H          H       0.85523   0.55722   0.33145   0.11377
H          H       0.44262   0.30464   0.27942   0.11324
H          H       0.70434   0.14454   0.25950   0.11469
H          H       0.14555   0.43930   0.24449   0.11577
H          H       0.55604   0.70789   0.28410   0.11275
H          H       0.29635   0.86197   0.29199   0.11370
H          H       0.80286   0.56348   0.39407   0.10251
H          H       0.43729   0.25384   0.33771   0.10822
H          H       0.75753   0.19697   0.31420   0.10787
H          H       0.19456   0.43794   0.29010   0.10636
H          H       0.55709   0.76426   0.34191   0.10254
H          H       0.24246   0.81400   0.37700   0.10487
H          H       0.86165   0.47398   0.09173   0.06476
H          H       0.52507   0.37176   0.11031   0.06222
H          H       0.63433   0.14137   0.10931   0.06948
H          H       0.15154   0.51481   0.14419   0.06171
H          H       0.48825   0.62401   0.07856   0.06649
H          H       0.37557   0.85147   0.04076   0.06217
H          H       0.57383   0.55895   0.82066   0.10352
H          H       0.43626   0.01868   0.86561   0.10931
H          H       0.98142   0.43108   0.84561   0.10294
H          H       0.41576   0.44064   0.87770   0.10405
H          H       0.55747   0.98649   0.86128   0.09950
H          H       0.01601   0.58340   0.81146   0.11229
H          H       0.61868   0.55355   0.86507   0.10564
H          H       0.43931   0.07421   0.90838   0.10674
H          H       0.92590   0.38585   0.90972   0.10959
H          H       0.36518   0.44745   0.92590   0.10459
H          H       0.54981   0.93333   0.89207   0.10646
H          H       0.06785   0.63297   0.88061   0.10736
H          H       0.55861   0.44704   0.80896   0.11565
H          H       0.54585   0.11695   0.79985   0.11847
H          H       0.88305   0.43459   0.79009   0.11150
H          H       0.42502   0.54298   0.79663   0.11585
H          H       0.45193   0.88320   0.76498   0.11354
H          H       0.11128   0.56918   0.83126   0.11716
H          H       0.43151   0.41760   0.60123   0.11044
H          H       0.57733   0.99650   0.62052   0.10665
H          H       0.00139   0.56164   0.58549   0.09705
H          H       0.56817   0.56159   0.62421   0.10025
H          H       0.43726   0.99069   0.59967   0.10773
H          H       0.00699   0.42494   0.56703   0.10741
H          H       0.42579   0.36127   0.57616   0.11992
H          H       0.63223   0.04582   0.60419   0.11770
H          H       0.95242   0.56715   0.58394   0.12000
H          H       0.57370   0.61524   0.61586   0.11674
H          H       0.38279   0.94064   0.57098   0.12462
H          H       0.05671   0.41819   0.54969   0.11815
H          H       0.51805   0.40887   0.76871   0.10670
H          H       0.58446   0.11124   0.77564   0.10706
H          H       0.88855   0.47469   0.74827   0.10150
H          H       0.46779   0.57760   0.74213   0.10600
H          H       0.41712   0.88535   0.70984   0.10434
H          H       0.10803   0.52513   0.77614   0.10808
H          H       0.65514   0.53651   0.75195   0.05935
H          H       0.45361   0.11035   0.74706   0.05686
H          H       0.88626   0.34318   0.73603   0.05947
H          H       0.33545   0.44871   0.75652   0.05665
H          H       0.54502   0.88225   0.72962   0.06101
H          H       0.11856   0.65724   0.73824   0.06400
H          H       0.71135   0.55913   0.73030   0.10453
H          H       0.43035   0.14146   0.71418   0.09920
H          H       0.85480   0.28533   0.64391   0.10309
H          H       0.28217   0.42463   0.68607   0.10044
H          H       0.56826   0.84527   0.66345   0.10219
H          H       0.14940   0.71534   0.75912   0.10712
H          H       0.76273   0.55627   0.72355   0.10658
H          H       0.43375   0.19487   0.70351   0.10576
H          H       0.80064   0.23347   0.62440   0.10856
H          H       0.23364   0.42876   0.65824   0.10696
H          H       0.56516   0.79042   0.65245   0.10790
H          H       0.20411   0.76547   0.74225   0.10542
H          H       0.70331   0.46219   0.88192   0.10477
H          H       0.52987   0.24986   0.86709   0.10105
H          H       0.74857   0.29454   0.96636   0.10496
H          H       0.28033   0.53713   0.88633   0.10116
H          H       0.46212   0.75917   0.91396   0.10691
H          H       0.24867   0.71401   0.84047   0.10434
H          H       0.65161   0.46567   0.89203   0.11497
H          H       0.52660   0.19605   0.87453   0.11254
H          H       0.80312   0.34687   0.98147   0.11372
H          H       0.32949   0.53295   0.90933   0.11345
H          H       0.46588   0.81492   0.93045   0.11413
H          H       0.19317   0.66397   0.86258   0.11324
H          H       0.74813   0.45252   0.65213   0.10752
H          H       0.53817   0.28179   0.70095   0.10719
H          H       0.71385   0.25321   0.72987   0.10579
H          H       0.25206   0.53616   0.71862   0.10456
H          H       0.46363   0.70899   0.65495   0.10827
H          H       0.28984   0.74017   0.62755   0.10578
H          H       0.80233   0.45014   0.58611   0.10269
H          H       0.54119   0.33114   0.64201   0.10304
H          H       0.66227   0.19951   0.66943   0.10553
H          H       0.20385   0.53829   0.67227   0.10454
H          H       0.46061   0.65200   0.59514   0.10477
H          H       0.34437   0.78734   0.54830   0.10125
H          H       0.85043   0.55753   0.82078   0.11491
H          H       0.43463   0.29382   0.79661   0.11355
H          H       0.70482   0.14457   0.75245   0.11349
H          H       0.14020   0.43745   0.74470   0.11518
H          H       0.55369   0.69848   0.78178   0.11332
H          H       0.30017   0.85758   0.78977   0.11690
H          H       0.79617   0.56020   0.89007   0.10121
H          H       0.43124   0.24361   0.85131   0.10520
H          H       0.75720   0.19826   0.80476   0.10890
H          H       0.18842   0.43518   0.79348   0.10522
H          H       0.55707   0.75582   0.83830   0.10377
H          H       0.24550   0.81053   0.87337   0.10561
H          H       0.85983   0.47538   0.59035   0.06241
H          H       0.51597   0.36117   0.61592   0.06105
H          H       0.63205   0.13856   0.61678   0.07127
H          H       0.14804   0.51331   0.63833   0.06073
H          H       0.48343   0.61588   0.58748   0.06721
H          H       0.37894   0.84526   0.55187   0.06360
C          C       0.48842   0.49124   0.24800  -0.00490
C          C       0.51248   0.00107   0.23707  -0.00672
C          C       0.00556   0.51512   0.21751  -0.01064
C          C       0.52030   0.51944   0.23920  -0.00979
C          C       0.48481   0.00491   0.23334  -0.01470
C          C       0.00258   0.48374   0.21699  -0.01077
C          C       0.54832   0.51647   0.26012   0.03414
C          C       0.48812   0.03915   0.27410   0.03069
C          C       0.96977   0.45680   0.25566   0.02550
C          C       0.45854   0.49604   0.28736   0.02604
C          C       0.50685   0.96939   0.25965   0.03046
C          C       0.03662   0.54551   0.25414   0.02913
C          C       0.52260   0.54982   0.21490   0.03100
C          C       0.45411   0.97462   0.19133   0.01896
C          C       0.03263   0.47987   0.18793   0.02832
C          C       0.48589   0.45776   0.21805   0.02410
C          C       0.54567   0.02912   0.21992   0.02718
C          C       0.97666   0.51583   0.19395   0.02988
C          C       0.57985   0.54457   0.29063  -0.11085
C          C       0.45981   0.04620   0.33381  -0.12101
C          C       0.96511   0.42904   0.30895  -0.12251
C          C       0.42667   0.47283   0.35744  -0.11152
C          C       0.53008   0.96700   0.32296  -0.13352
C          C       0.03941   0.57903   0.30287  -0.11467
C          C       0.60581   0.54166   0.31498  -0.18824
C          C       0.46230   0.07795   0.35866  -0.18720
C          C       0.93405   0.40330   0.34699  -0.19111
C          C       0.39763   0.47563   0.38411  -0.18597
C          C       0.52495   0.93679   0.34201  -0.18074
C          C       0.06847   0.60777   0.34387  -0.18428
C          C       0.60196   0.51004   0.31743   0.21145
C          C       0.49414   0.10498   0.32680   0.21059
C          C       0.90517   0.40431   0.33788   0.20618
C          C       0.39927   0.50319   0.34561   0.21610
C          C       0.49547   0.90675   0.30284   0.20822
C          C       0.09708   0.60483   0.34075   0.21108
C          C       0.57040   0.48281   0.30459  -0.18880
C          C       0.52237   0.09967   0.29483  -0.19321
C          C       0.90906   0.43328   0.30637  -0.19794
C          C       0.43080   0.52856   0.30016  -0.20611
C          C       0.47092   0.90952   0.25896  -0.18874
C          C       0.09363   0.57240   0.31545  -0.19818
C          C       0.54394   0.48493   0.27279   0.03784
C          C       0.52028   0.06760   0.27140   0.03993
C          C       0.94054   0.45953   0.26419   0.04729
C          C       0.46060   0.52600   0.27234   0.04155
C          C       0.47569   0.94002   0.23770   0.04091
C          C       0.06440   0.54271   0.27070   0.03651
C          C       0.45823   0.42725   0.15402  -0.11647
C          C       0.57538   0.02469   0.16707  -0.12030
C          C       0.97912   0.54209   0.13663  -0.13225
C          C       0.55312   0.57695   0.16448  -0.12191
C          C       0.42833   0.97464   0.13608  -0.12355
C          C       0.03367   0.44785   0.11228  -0.11922
C          C       0.45523   0.39554   0.13561  -0.16250
C          C       0.60678   0.05149   0.15739  -0.16576
C          C       0.95132   0.54472   0.13503  -0.15803
C          C       0.55556   0.60657   0.15284  -0.16496
C          C       0.39781   0.94671   0.11693  -0.17229
C          C       0.06127   0.44404   0.10533  -0.15985
C          C       0.48000   0.39267   0.18146   0.20925
C          C       0.61071   0.08510   0.20027   0.21594
C          C       0.91897   0.51997   0.18419   0.21270
C          C       0.52664   0.61078   0.18330   0.21381
C          C       0.39171   0.91596   0.14411   0.20861
C          C       0.08943   0.47249   0.17482   0.21346
C          C       0.50853   0.42228   0.22963  -0.22317
C          C       0.58193   0.08951   0.23713  -0.22238
C          C       0.91611   0.49189   0.22093  -0.21972
C          C       0.49612   0.58314   0.21437  -0.22565
C          C       0.41829   0.91420   0.17376  -0.22394
C          C       0.08986   0.50458   0.23241  -0.22035
C          C       0.51273   0.45465   0.24144   0.04376
C          C       0.54968   0.06233   0.24125   0.04460
C          C       0.94413   0.48895   0.22485   0.04741
C          C       0.49323   0.55303   0.23036   0.04148
C          C       0.44933   0.94252   0.19671   0.05382
C          C       0.06271   0.50917   0.23124   0.04346
C          C       0.49938   0.35449   0.15911   0.07202
C          C       0.65067   0.13953   0.17171   0.07480
C          C       0.86368   0.49995   0.15862   0.07089
C          C       0.50850   0.64600   0.14824   0.07866
C          C       0.35474   0.85846   0.11207   0.07046
C          C       0.14534   0.49149   0.17744   0.07101
C          C       0.65800   0.52525   0.29492   0.06209
C          C       0.47742   0.14039   0.28638   0.06937
C          C       0.86926   0.34714   0.30073   0.06310
C          C       0.34440   0.48143   0.31120   0.06566
C          C       0.51457   0.86884   0.28018   0.07393
C          C       0.13609   0.65815   0.30470   0.06533
C          C       0.68624   0.52159   0.30461   0.04936
C          C       0.48082   0.17307   0.28923   0.06107
C          C       0.83680   0.31771   0.30904   0.05485
C          C       0.31504   0.48389   0.30747   0.05902
C          C       0.51264   0.83794   0.29315   0.05170
C          C       0.16787   0.68853   0.31114   0.05485
C          C       0.71850   0.54710   0.26624  -0.12841
C          C       0.45483   0.17429   0.24643  -0.13228
C          C       0.83498   0.28525   0.20882  -0.12909
C          C       0.28803   0.45439   0.23537  -0.13141
C          C       0.54112   0.83168   0.21571  -0.12645
C          C       0.16994   0.71710   0.28043  -0.12557
C          C       0.74651   0.54384   0.26120  -0.14455
C          C       0.45746   0.20491   0.24294  -0.13387
C          C       0.80430   0.25670   0.19993  -0.13843
C          C       0.26042   0.45599   0.21995  -0.13426
C          C       0.54047   0.80160   0.21120  -0.14162
C          C       0.20005   0.74611   0.27247  -0.13742
C          C       0.74345   0.51474   0.29049   0.06833
C          C       0.48642   0.23539   0.27961   0.06551
C          C       0.77441   0.25969   0.29091   0.06992
C          C       0.25838   0.48714   0.27681   0.07103
C          C       0.51121   0.77654   0.28246   0.07346
C          C       0.22953   0.74717   0.28834   0.06186
C          C       0.71104   0.48964   0.33432  -0.13019
C          C       0.51224   0.23408   0.32420  -0.13634
C          C       0.77639   0.29215   0.39528  -0.13490
C          C       0.28541   0.51663   0.35041  -0.13303
C          C       0.48321   0.78361   0.36820  -0.13372
C          C       0.22719   0.71880   0.32357  -0.13491
C          C       0.68299   0.49312   0.34235  -0.10805
C          C       0.50946   0.20369   0.33080  -0.09725
C          C       0.80704   0.32075   0.40532  -0.09756
C          C       0.31309   0.51514   0.36559  -0.09776
C          C       0.48383   0.81381   0.37420  -0.09921
C          C       0.19687   0.69013   0.33730  -0.10158
C          C       0.77368   0.51074   0.26723   0.06835
C          C       0.49007   0.26699   0.26050   0.07572
C          C       0.74208   0.22932   0.27050   0.06574
C          C       0.22917   0.48861   0.25799   0.06879
C          C       0.50992   0.74330   0.25816   0.06612
C          C       0.26189   0.77626   0.25469   0.07197
C          C       0.77448   0.47903   0.17833  -0.13363
C          C       0.52156   0.29219   0.20628  -0.14704
C          C       0.71555   0.23058   0.23421  -0.14242
C          C       0.23185   0.51799   0.23336  -0.13973
C          C       0.48312   0.71289   0.19150  -0.13703
C          C       0.29085   0.77121   0.16347  -0.13676
C          C       0.80376   0.47574   0.14297  -0.12841
C          C       0.52441   0.32042   0.17247  -0.13242
C          C       0.68619   0.20112   0.19888  -0.12380
C          C       0.20441   0.51866   0.20807  -0.12965
C          C       0.48327   0.68155   0.15248  -0.12370
C          C       0.32065   0.79796   0.11544  -0.12576
C          C       0.83326   0.50396   0.19626   0.05427
C          C       0.49580   0.32474   0.19443   0.05292
C          C       0.68199   0.16978   0.20598   0.04844
C          C       0.17317   0.49005   0.20870   0.05301
C          C       0.50955   0.67929   0.18461   0.05396
C          C       0.32277   0.83079   0.15889   0.05536
C          C       0.83241   0.53565   0.28833  -0.09382
C          C       0.46445   0.30047   0.25657  -0.09221
C          C       0.70801   0.16866   0.24934  -0.10387
C          C       0.17001   0.46096   0.23904  -0.10347
C          C       0.53607   0.70970   0.25570  -0.09974
C          C       0.29414   0.83624   0.25512  -0.09710
C          C       0.80325   0.53890   0.32244  -0.13514
C          C       0.46166   0.27219   0.28768  -0.13138
C          C       0.73760   0.19785   0.27880  -0.13631
C          C       0.19750   0.46028   0.26252  -0.12912
C          C       0.53642   0.74097   0.28820  -0.13899
C          C       0.26436   0.80947   0.30128  -0.13344
C          C       0.47999   0.48024   0.74434  -0.01036
C          C       0.51552   0.99684   0.74727  -0.00807
C          C       0.00264   0.51567   0.71278  -0.00855
C          C       0.51190   0.50840   0.74071  -0.00620
C          C       0.48733  -0.00017   0.74372  -0.00885
C          C       0.99900   0.48419   0.71549  -0.00899
C          C       0.53964   0.50525   0.76339   0.03067
C          C       0.48939   0.03349   0.78264   0.02955
C          C       0.96588   0.45788   0.75533   0.02856
C          C       0.45042   0.48567   0.78346   0.02664
C          C       0.51083   0.96551   0.76992   0.02615
C          C       0.03395   0.54562   0.75007   0.02980
C          C       0.51502   0.53934   0.71913   0.02854
C          C       0.45719   0.96907   0.70097   0.02828
C          C       0.02847   0.47941   0.68859   0.02832
C          C       0.47743   0.44655   0.71134   0.02487
C          C       0.54822   0.02536   0.72572   0.02910
C          C       0.97406   0.51691   0.68859   0.02719
C          C       0.57060   0.53354   0.80135  -0.11496
C          C       0.46046   0.03942   0.83851  -0.12120
C          C       0.96043   0.43077   0.81702  -0.12092
C          C       0.41800   0.46211   0.84635  -0.11439
C          C       0.53534   0.96339   0.82379  -0.13149
C          C       0.03743   0.57938   0.79915  -0.11731
C          C       0.59621   0.53062   0.82933  -0.17739
C          C       0.46212   0.07077   0.86355  -0.18551
C          C       0.92912   0.40531   0.85503  -0.18667
C          C       0.38943   0.46598   0.87536  -0.18931
C          C       0.53106   0.93341   0.84221  -0.18871
C          C       0.06662   0.60768   0.84203  -0.18254
C          C       0.59287   0.49865   0.82257   0.21405
C          C       0.49364   0.09855   0.83608   0.21508
C          C       0.90074   0.40587   0.83643   0.20946
C          C       0.39205   0.49501   0.84660   0.21218
C          C       0.50100   0.90344   0.81262   0.20633
C          C       0.09458   0.60395   0.84160   0.21141
C          C       0.56166   0.47101   0.80222  -0.19289
C          C       0.52235   0.09431   0.80726  -0.19364
C          C       0.90540   0.43447   0.79749  -0.20285
C          C       0.42401   0.52039   0.80830  -0.19645
C          C       0.47551   0.90584   0.77602  -0.19182
C          C       0.09035   0.57127   0.81693  -0.19835
C          C       0.53525   0.47342   0.77142   0.03163
C          C       0.52102   0.06255   0.78230   0.03926
C          C       0.93708   0.46062   0.75757   0.04734
C          C       0.45327   0.51675   0.77714   0.04014
C          C       0.47957   0.93596   0.75372   0.04358
C          C       0.06110   0.54203   0.76863   0.03566
C          C       0.45005   0.41597   0.64486  -0.12402
C          C       0.57848   0.02176   0.66403  -0.12126
C          C       0.97682   0.54356   0.63288  -0.13409
C          C       0.54603   0.56565   0.66621  -0.12372
C          C       0.43206   0.96856   0.63804  -0.12330
C          C       0.02885   0.44705   0.61701  -0.12333
C          C       0.44677   0.38421   0.62911  -0.16225
C          C       0.60949   0.04923   0.65156  -0.16434
C          C       0.94943   0.54665   0.62948  -0.15918
C          C       0.54928   0.59567   0.65518  -0.15916
C          C       0.40176   0.94033   0.61772  -0.16010
C          C       0.05653   0.44298   0.60620  -0.15908
C          C       0.47111   0.38134   0.67973   0.20882
C          C       0.61214   0.08243   0.69890   0.21313
C          C       0.91686   0.52196   0.67660   0.21213
C          C       0.52092   0.60113   0.68904   0.21301
C          C       0.39562   0.91012   0.65079   0.20455
C          C       0.08532   0.47124   0.66994   0.21536
C          C       0.49957   0.41099   0.72802  -0.22448
C          C       0.58270   0.08591   0.74201  -0.21802
C          C       0.91366   0.49375   0.71385  -0.22112
C          C       0.48982   0.57419   0.72240  -0.22834
C          C       0.42187   0.90882   0.68774  -0.21427
C          C       0.08602   0.50341   0.72719  -0.21772
C          C       0.50407   0.44336   0.73702   0.04631
C          C       0.55097   0.05816   0.74948   0.04415
C          C       0.94128   0.49023   0.71754   0.04852
C          C       0.48617   0.54363   0.73728   0.04392
C          C       0.45269   0.93749   0.71210   0.04934
C          C       0.05888   0.50833   0.72885   0.04346
C          C       0.49056   0.34405   0.66862   0.07672
C          C       0.64958   0.13749   0.67373   0.07219
C          C       0.86144   0.50127   0.65486   0.07009
C          C       0.50444   0.63756   0.65264   0.07822
C          C       0.35823   0.85265   0.61720   0.06716
C          C       0.14138   0.48975   0.67091   0.07421
C          C       0.64898   0.51493   0.80133   0.06657
C          C       0.47582   0.13283   0.79441   0.06651
C          C       0.86462   0.34894   0.80412   0.06764
C          C       0.33791   0.47501   0.80554   0.06348
C          C       0.51991   0.86480   0.78294   0.06511
C          C       0.13510   0.65680   0.80568   0.06477
C          C       0.67794   0.51247   0.81124   0.04974
C          C       0.47840   0.16495   0.79421   0.06019
C          C       0.83233   0.31938   0.81252   0.05645
C          C       0.30922   0.47855   0.79987   0.05668
C          C       0.51700   0.83319   0.79242   0.05194
C          C       0.16756   0.68627   0.81203   0.05547
C          C       0.70964   0.53827   0.76741  -0.12945
C          C       0.45219   0.16534   0.74935  -0.13074
C          C       0.83142   0.28713   0.71544  -0.12556
C          C       0.28165   0.44929   0.73095  -0.13457
C          C       0.54517   0.82638   0.71984  -0.13225
C          C       0.17108   0.71552   0.78159  -0.12805
C          C       0.73848   0.53665   0.76335  -0.14178
C          C       0.45370   0.19539   0.74609  -0.13415
C          C       0.80119   0.25814   0.70557  -0.13795
C          C       0.25422   0.45150   0.71737  -0.13454
C          C       0.54335   0.79559   0.71351  -0.14017
C          C       0.20181   0.74372   0.77307  -0.13033
C          C       0.73691   0.50878   0.79864   0.06916
C          C       0.48194   0.22661   0.78664   0.06631
C          C       0.77085   0.26043   0.79281   0.07231
C          C       0.25314   0.48315   0.77234   0.07151
C          C       0.51303   0.77031   0.77636   0.07327
C          C       0.23062   0.74343   0.78834   0.06210
C          C       0.70505   0.48323   0.84647  -0.13481
C          C       0.50819   0.22602   0.83107  -0.13550
C          C       0.77189   0.29275   0.89400  -0.13996
C          C       0.28083   0.51244   0.84136  -0.12935
C          C       0.48522   0.77786   0.85649  -0.13553
C          C       0.22687   0.71431   0.82268  -0.13655
C          C       0.67617   0.48517   0.85380  -0.10346
C          C       0.50656   0.19610   0.83606  -0.09450
C          C       0.80216   0.32186   0.90410  -0.09926
C          C       0.30827   0.51033   0.85527  -0.09735
C          C       0.48713   0.80888   0.86640  -0.09781
C          C       0.19594   0.68640   0.83627  -0.10193
C          C       0.76816   0.50658   0.77476   0.06877
C          C       0.48428   0.25805   0.77295   0.07470
C          C       0.73920   0.22945   0.77070   0.06210
C          C       0.22416   0.48517   0.75441   0.06883
C          C       0.51047   0.73652   0.75180   0.06603
C          C       0.26354   0.77178   0.75389   0.07103
C          C       0.77034   0.47548   0.69179  -0.13602
C          C       0.51532   0.28407   0.72137  -0.13344
C          C       0.71176   0.22959   0.73712  -0.13902
C          C       0.22762   0.51455   0.72607  -0.13880
C          C       0.48306   0.70668   0.68567  -0.13752
C          C       0.29204   0.76585   0.66452  -0.14073
C          C       0.80081   0.47424   0.65285  -0.12735
C          C       0.51704   0.31186   0.68828  -0.13428
C          C       0.68296   0.19942   0.70221  -0.12208
C          C       0.20055   0.51576   0.69952  -0.13052
C          C       0.48164   0.67478   0.65097  -0.12388
C          C       0.32247   0.79220   0.61844  -0.13149
C          C       0.83012   0.50379   0.69638   0.05656
C          C       0.48789   0.31514   0.70923   0.05965
C          C       0.68031   0.16856   0.70678   0.04916
C          C       0.16886   0.48773   0.70279   0.05361
C          C       0.50705   0.67136   0.68423   0.05379
C          C       0.32561   0.82536   0.66053   0.05476
C          C       0.82787   0.53483   0.78407  -0.09711
C          C       0.45697   0.29044   0.77282  -0.09841
C          C       0.70734   0.16847   0.74490  -0.10199
C          C       0.16494   0.45867   0.73737  -0.10439
C          C       0.53431   0.70119   0.75331  -0.09749
C          C       0.29738   0.83166   0.75346  -0.09727
C          C       0.79753   0.53606   0.82176  -0.13344
C          C       0.45530   0.26245   0.80204  -0.13055
C          C       0.73640   0.19825   0.77387  -0.13553
C          C       0.19206   0.45746   0.76195  -0.13070
C          C       0.53604   0.73302   0.78421  -0.13705
C          C       0.26701   0.80532   0.79875  -0.12970
N          N       0.62709   0.50423   0.33554  -0.28828
N          N       0.49945   0.13723   0.33167  -0.28950
N          N       0.87279   0.37816   0.36111  -0.28396
N          N       0.37164   0.50776   0.35477  -0.28468
N          N       0.48911   0.87525   0.31775  -0.28790
N          N       0.12860   0.63256   0.36218  -0.29606
N          N       0.47424   0.36089   0.18723  -0.28487
N          N       0.64257   0.11220   0.21391  -0.28761
N          N       0.89146   0.52530   0.20103  -0.27335
N          N       0.53003   0.64271   0.19584  -0.28331
N          N       0.35929   0.88972   0.15695  -0.27924
N          N       0.11531   0.46722   0.18681  -0.28359
N          N       0.61828   0.49311   0.83949  -0.28934
N          N       0.49824   0.13054   0.84122  -0.29321
N          N       0.86821   0.37996   0.85953  -0.28897
N          N       0.36513   0.50071   0.85474  -0.28394
N          N       0.49479   0.87190   0.82604  -0.28488
N          N       0.12634   0.63098   0.86473  -0.29507
N          N       0.46524   0.34995   0.69330  -0.28785
N          N       0.64353   0.11030   0.70969  -0.28798
N          N       0.88925   0.52717   0.69301  -0.27481
N          N       0.52551   0.63343   0.69921  -0.28464
N          N       0.36317   0.88387   0.65936  -0.27534
N          N       0.11120   0.46572   0.67991  -0.28665

