data_crystal

_audit_creation_method 'AiiDA-DDEC plugin'

_cell_length_a        41.53810
_cell_length_b        41.69102
_cell_length_c         7.92340

_cell_angle_alpha     113.27813
_cell_angle_beta     78.62940
_cell_angle_gamma     120.24557

_symmetry_space_group_name_Hall 'P 1'
_symmetry_space_group_name_H-M  'P 1'

loop_
_symmetry_equiv_pos_as_xyz
 'x,y,z'

loop_
_atom_site_label
_atom_site_type_symbol
_atom_site_fract_x
_atom_site_fract_y
_atom_site_fract_z
_atom_site_charge
H          H       0.05195   0.42097   0.30866   0.12404
H          H       0.58507   0.65362   0.41931   0.12686
H          H       0.35959   0.94927   0.29506   0.12594
H          H       0.94831   0.60548   0.41546   0.12417
H          H       0.41212   0.35551   0.25719   0.12403
H          H       0.64634   0.06609   0.38341   0.12898
H          H       0.12413   0.53397   0.25121   0.11019
H          H       0.47163   0.59760   0.24996   0.11289
H          H       0.41186   0.88273   0.28723   0.11101
H          H       0.87654   0.48033   0.27221   0.11300
H          H       0.53109   0.41184   0.28168   0.10842
H          H       0.60133   0.13099   0.29721   0.11311
H          H       0.15707   0.52909   0.44983   0.08044
H          H       0.48184   0.65673   0.37355   0.07506
H          H       0.36165   0.84946   0.38837   0.08058
H          H       0.83760   0.49905   0.39536   0.07702
H          H       0.51889   0.36989   0.40507   0.07723
H          H       0.65384   0.17974   0.48221   0.07899
H          H       0.22681   0.54858   0.52138   0.14370
H          H       0.46045   0.70408   0.36042   0.13950
H          H       0.31136   0.77561   0.37341   0.14167
H          H       0.76760   0.47326   0.36511   0.14033
H          H       0.54297   0.32309   0.42781   0.14079
H          H       0.70487   0.25340   0.51278   0.14131
H          H       0.24760   0.42201   0.02662   0.13908
H          H       0.58584   0.82259   0.16597   0.13832
H          H       0.17982   0.75595   0.17542   0.14200
H          H       0.75621   0.58436   0.19569   0.14064
H          H       0.43223   0.17049   0.08516   0.13849
H          H       0.81696   0.23792   0.02799   0.13854
H          H       0.31737   0.44310   0.06228   0.06996
H          H       0.56285   0.86988   0.14931   0.07287
H          H       0.13048   0.68252   0.14129   0.07623
H          H       0.68406   0.55567   0.15786   0.07547
H          H       0.45524   0.12388   0.09906   0.07120
H          H       0.86654   0.31058   0.04956   0.07071
H          H       0.42237   0.55649   0.29983   0.14237
H          H       0.45350   0.87445   0.24715   0.14211
H          H       0.13012   0.57832   0.20183   0.14043
H          H       0.57783   0.45003   0.23307   0.13890
H          H       0.55792   0.13550   0.29029   0.14269
H          H       0.87178   0.43184   0.28715   0.14208
H          H       0.36052   0.42995   0.04856   0.12440
H          H       0.56604   0.91252   0.05353   0.12688
H          H       0.07796   0.63297   0.07697   0.12912
H          H       0.63771   0.55346   0.07994   0.13304
H          H       0.44895   0.06940   0.04816   0.12290
H          H       0.91852   0.35287   0.00473   0.12782
H          H       0.41814   0.42730   0.03842   0.10185
H          H       0.56747   0.97275   0.06247   0.10739
H          H       0.01766   0.57598   0.08604   0.10224
H          H       0.57899   0.55489   0.09572   0.10521
H          H       0.44660   0.00987   0.04469   0.09403
H          H       0.97888   0.41106   0.00831   0.10921
H          H       0.99733   0.42500   0.26626   0.09222
H          H       0.57792   0.58918   0.38369   0.10211
H          H       0.41922   0.00122   0.24796   0.09927
H          H       0.00295   0.59486   0.35884   0.10194
H          H       0.41544   0.41289   0.22973   0.09565
H          H       0.58445   0.00845   0.34075   0.09891
H          H       0.05072   0.40567   0.78041   0.12455
H          H       0.58917   0.65367   0.91132   0.12745
H          H       0.35033   0.94542   0.82773   0.12505
H          H       0.94119   0.58819   0.90389   0.12628
H          H       0.41305   0.35571   0.75838   0.12355
H          H       0.63537   0.05641   0.88348   0.12824
H          H       0.11981   0.52290   0.76573   0.10989
H          H       0.47517   0.59824   0.75241   0.11083
H          H       0.40044   0.87467   0.78789   0.11144
H          H       0.87086   0.46277   0.76094   0.11323
H          H       0.53185   0.41013   0.77855   0.10890
H          H       0.59285   0.12101   0.77384   0.11321
H          H       0.15299   0.51760   0.95242   0.07744
H          H       0.48502   0.65593   0.87801   0.07188
H          H       0.35057   0.84292   0.89685   0.08087
H          H       0.83036   0.48101   0.88643   0.07915
H          H       0.51841   0.36656   0.90181   0.07875
H          H       0.64465   0.17005   0.95507   0.08104
H          H       0.22347   0.53962   0.02937   0.14230
H          H       0.46075   0.70021   0.86793   0.14005
H          H       0.30337   0.77018   0.88209   0.14345
H          H       0.75929   0.45789   0.85282   0.14158
H          H       0.54045   0.31775   0.92063   0.14137
H          H       0.69817   0.24295   0.98018   0.14159
H          H       0.25416   0.42434   0.48892   0.13704
H          H       0.58085   0.82143   0.66613   0.13789
H          H       0.16916   0.74079   0.66356   0.14127
H          H       0.75843   0.57769   0.71068   0.14418
H          H       0.42778   0.16687   0.57258   0.13848
H          H       0.80935   0.22009   0.51294   0.13812
H          H       0.32334   0.44677   0.53667   0.07002
H          H       0.55462   0.86686   0.66402   0.07227
H          H       0.12265   0.66749   0.63650   0.07260
H          H       0.68649   0.55361   0.67378   0.07764
H          H       0.44786   0.11845   0.59272   0.06898
H          H       0.86100   0.29259   0.52027   0.07308
H          H       0.42591   0.55786   0.80346   0.14349
H          H       0.44368   0.86847   0.77117   0.14275
H          H       0.12519   0.56708   0.72155   0.13641
H          H       0.57835   0.44738   0.72627   0.13761
H          H       0.54930   0.12682   0.77886   0.14409
H          H       0.86662   0.41402   0.76093   0.14306
H          H       0.36355   0.43143   0.54833   0.12493
H          H       0.55451   0.90400   0.55484   0.12670
H          H       0.07166   0.61672   0.56679   0.12604
H          H       0.64045   0.55192   0.58379   0.13287
H          H       0.43909   0.06244   0.55116   0.12530
H          H       0.91515   0.33708   0.47894   0.12657
H          H       0.42087   0.42820   0.54005   0.10208
H          H       0.55516   0.96315   0.55294   0.10713
H          H       0.01197   0.55961   0.57862   0.10210
H          H       0.58225   0.55437   0.59732   0.10740
H          H       0.43504   0.00271   0.55597   0.10106
H          H       0.97555   0.39610   0.49483   0.11062
H          H       0.99526   0.40806   0.73884   0.09212
H          H       0.58161   0.58930   0.87860   0.10128
H          H       0.41050   0.99700   0.77905   0.10110
H          H       0.99640   0.57883   0.84710   0.10133
H          H       0.41720   0.41376   0.73424   0.09440
H          H       0.57308   0.99893   0.83675   0.09448
C          C       0.02867   0.48033   0.21331  -0.01833
C          C       0.52105   0.55471   0.27988  -0.02097
C          C       0.45207   0.97182   0.22154  -0.02325
C          C       0.97186   0.53049   0.26411  -0.02386
C          C       0.47594   0.44635   0.22095  -0.01619
C          C       0.55661   0.03386   0.26973  -0.02086
C          C       0.02493   0.44822   0.25304  -0.14722
C          C       0.55480   0.59041   0.34735  -0.13593
C          C       0.41855   0.97480   0.24596  -0.13752
C          C       0.97544   0.56929   0.33291  -0.13952
C          C       0.44144   0.41307   0.23236  -0.13925
C          C       0.58792   0.03433   0.32102  -0.13367
C          C       0.05535   0.44584   0.27888  -0.14784
C          C       0.55903   0.62675   0.36889  -0.13635
C          C       0.38452   0.94600   0.27821  -0.15088
C          C       0.94492   0.57566   0.36800  -0.14799
C          C       0.43910   0.38059   0.25229  -0.14867
C          C       0.62279   0.06673   0.34732  -0.14836
C          C       0.09216   0.47651   0.27439   0.22793
C          C       0.52962   0.63028   0.32520   0.22802
C          C       0.38085   0.91147   0.29232   0.22671
C          C       0.90811   0.54346   0.33877   0.23360
C          C       0.47149   0.37903   0.27050   0.22668
C          C       0.62871   0.10227   0.33285   0.23146
C          C       0.09612   0.51000   0.25036  -0.22069
C          C       0.49480   0.59584   0.28195  -0.22262
C          C       0.41380   0.90868   0.27543  -0.22716
C          C       0.90434   0.50543   0.29252  -0.21392
C          C       0.50587   0.41229   0.26757  -0.22554
C          C       0.59707   0.10392   0.30760  -0.21921
C          C       0.06550   0.51241   0.21811   0.01740
C          C       0.48973   0.55893   0.26636   0.01517
C          C       0.44857   0.93728   0.24004   0.00819
C          C       0.93498   0.49846   0.26064   0.01762
C          C       0.50887   0.44478   0.23940   0.00947
C          C       0.56151   0.07079   0.27552   0.01519
C          C       0.15332   0.49941   0.36130   0.04996
C          C       0.51044   0.67501   0.33592   0.04177
C          C       0.33958   0.85225   0.34832   0.05022
C          C       0.84465   0.52511   0.36245   0.04254
C          C       0.49362   0.34324   0.33602   0.05067
C          C       0.67289   0.16912   0.39258   0.04510
C          C       0.18495   0.49337   0.33459  -0.02155
C          C       0.51636   0.70931   0.31065  -0.00188
C          C       0.30331   0.82007   0.33162  -0.01315
C          C       0.81380   0.52820   0.33658  -0.02127
C          C       0.49064   0.30646   0.31242  -0.00546
C          C       0.70712   0.19821   0.34947  -0.01085
C          C       0.22894   0.46558   0.20981  -0.01076
C          C       0.54263   0.77149   0.24375  -0.00086
C          C       0.23618   0.77463   0.25839  -0.00507
C          C       0.77148   0.54732   0.26589  -0.00297
C          C       0.46989   0.23456   0.21222  -0.01496
C          C       0.76752   0.23263   0.20587  -0.00122
C          C       0.24507   0.50404   0.34700  -0.01363
C          C       0.50373   0.75564   0.28616  -0.00805
C          C       0.25454   0.75705   0.29604  -0.01414
C          C       0.75246   0.51031   0.29448  -0.01484
C          C       0.50536   0.25888   0.30094  -0.01477
C          C       0.75381   0.25867   0.33111  -0.01247
C          C       0.22029   0.51971   0.41693  -0.20186
C          C       0.48915   0.72090   0.32404  -0.21077
C          C       0.29223   0.78277   0.33958  -0.20577
C          C       0.77616   0.49976   0.33553  -0.19364
C          C       0.51699   0.29939   0.35771  -0.19947
C          C       0.71997   0.23931   0.41212  -0.20406
C          C       0.25392   0.45038   0.13500  -0.21458
C          C       0.55721   0.80603   0.20404  -0.22718
C          C       0.19859   0.74891   0.21336  -0.21733
C          C       0.74775   0.55782   0.22463  -0.21555
C          C       0.45818   0.19410   0.15577  -0.21304
C          C       0.80163   0.25196   0.12665  -0.21441
C          C       0.28973   0.47716   0.21278  -0.00861
C          C       0.52981   0.81738   0.21552   0.00757
C          C       0.18755   0.71114   0.21563  -0.00641
C          C       0.71003   0.52898   0.22189  -0.00839
C          C       0.48460   0.18683   0.19904   0.00533
C          C       0.81449   0.29313   0.18893  -0.00061
C          C       0.32169   0.47187   0.16566   0.02163
C          C       0.53461   0.85069   0.18601   0.00652
C          C       0.15183   0.67811   0.17703   0.02172
C          C       0.67854   0.53014   0.19061   0.01203
C          C       0.48123   0.14951   0.16606   0.03133
C          C       0.84825   0.32181   0.14256   0.02014
C          C       0.48045   0.48210   0.20863   0.02356
C          C       0.52075  -0.00046   0.22058   0.02985
C          C       0.00244   0.52170   0.21044   0.02517
C          C       0.51619   0.51553   0.23119   0.02565
C          C       0.48908   0.00261   0.20670   0.02798
C          C       0.99760   0.48441   0.19067   0.02984
C          C       0.45307   0.52478   0.23509   0.11806
C          C       0.48089   0.93134   0.21853   0.12122
C          C       0.07066   0.54732   0.19286   0.12658
C          C       0.54552   0.47592   0.21946   0.12020
C          C       0.53015   0.07322   0.23927   0.13033
C          C       0.92956   0.45897   0.21954   0.12137
C          C       0.42061   0.52738   0.25051  -0.24183
C          C       0.47960   0.89757   0.21885  -0.23711
C          C       0.10508   0.57891   0.18600  -0.24855
C          C       0.57845   0.47467   0.21343  -0.24711
C          C       0.53216   0.10795   0.24629  -0.23889
C          C       0.89569   0.42704   0.23125  -0.23919
C          C       0.38492   0.49435   0.20236   0.23602
C          C       0.51052   0.89041   0.18167   0.23449
C          C       0.11015   0.61331   0.16589   0.23307
C          C       0.61390   0.50431   0.18612   0.23405
C          C       0.50276   0.11005   0.19582   0.23530
C          C       0.88998   0.38785   0.17307   0.23321
C          C       0.38519   0.45704   0.11530  -0.22510
C          C       0.54292   0.91840   0.11564  -0.22096
C          C       0.07686   0.61106   0.12271  -0.22340
C          C       0.61317   0.53332   0.13429  -0.22025
C          C       0.47106   0.07242   0.11692  -0.22331
C          C       0.92110   0.38228   0.07856  -0.21924
C          C       0.41668   0.45452   0.11179  -0.02001
C          C       0.54428   0.95184   0.11816  -0.00555
C          C       0.04308   0.57996   0.12795  -0.00996
C          C       0.58092   0.53463   0.14140  -0.00442
C          C       0.46881   0.03868   0.11521  -0.01814
C          C       0.95483   0.41391   0.07886  -0.01072
C          C       0.02473   0.46620   0.71371  -0.02589
C          C       0.52424   0.55494   0.78122  -0.02048
C          C       0.44181   0.96515   0.73412  -0.01838
C          C       0.96622   0.51441   0.75763  -0.02804
C          C       0.47775   0.44642   0.72391  -0.01879
C          C       0.54642   0.02506   0.76285  -0.03033
C          C       0.02237   0.43311   0.73864  -0.14783
C          C       0.55830   0.59055   0.84480  -0.13710
C          C       0.40899   0.96970   0.77073  -0.13965
C          C       0.96913   0.55290   0.82300  -0.13706
C          C       0.44300   0.41349   0.73616  -0.13597
C          C       0.57718   0.02500   0.81646  -0.13360
C          C       0.05336   0.43157   0.76365  -0.14895
C          C       0.56279   0.62695   0.86522  -0.13978
C          C       0.37478   0.94104   0.80290  -0.14268
C          C       0.93826   0.55858   0.85746  -0.13969
C          C       0.44020   0.38062   0.75428  -0.15048
C          C       0.61217   0.05714   0.84417  -0.14914
C          C       0.08963   0.46399   0.77075   0.22890
C          C       0.53325   0.63067   0.82490   0.22748
C          C       0.37030   0.90513   0.80484   0.22524
C          C       0.90168   0.52598   0.82979   0.23089
C          C       0.47225   0.37822   0.77008   0.22783
C          C       0.61892   0.09245   0.82405   0.23082
C          C       0.09220   0.49795   0.75909  -0.21471
C          C       0.49831   0.59640   0.78395  -0.21889
C          C       0.40290   0.90145   0.78280  -0.22119
C          C       0.89849   0.48815   0.78219  -0.22023
C          C       0.50685   0.41121   0.76694  -0.22519
C          C       0.58792   0.09436   0.79158  -0.21961
C          C       0.06111   0.49962   0.72818   0.01885
C          C       0.49303   0.55950   0.76920   0.01327
C          C       0.43794   0.93014   0.74985   0.00812
C          C       0.92959   0.48189   0.75091   0.01738
C          C       0.51030   0.44403   0.73976   0.01108
C          C       0.55203   0.06184   0.76329   0.02000
C          C       0.15134   0.48935   0.85466   0.05409
C          C       0.51321   0.67452   0.83767   0.04408
C          C       0.32862   0.84516   0.85182   0.05251
C          C       0.83791   0.50761   0.85705   0.04287
C          C       0.49298   0.34052   0.83059   0.05254
C          C       0.66398   0.15871   0.87633   0.04383
C          C       0.18467   0.48631   0.82108  -0.02178
C          C       0.51748   0.70797   0.81127  -0.00307
C          C       0.29288   0.81176   0.82809  -0.01372
C          C       0.80793   0.51264   0.83630  -0.01973
C          C       0.48903   0.30302   0.80327  -0.00597
C          C       0.69913   0.18659   0.83435  -0.01559
C          C       0.23185   0.46335   0.68659  -0.00868
C          C       0.54016   0.76938   0.74393  -0.00093
C          C       0.22631   0.76298   0.74998  -0.01009
C          C       0.76934   0.53681   0.77352  -0.00076
C          C       0.46663   0.23059   0.70021  -0.00959
C          C       0.76073   0.21801   0.69209  -0.00508
C          C       0.24557   0.49974   0.83819  -0.01312
C          C       0.50147   0.75213   0.79008  -0.01198
C          C       0.24623   0.74769   0.79391  -0.00612
C          C       0.74800   0.49908   0.79502  -0.01257
C          C       0.50188   0.25396   0.79061  -0.01534
C          C       0.74790   0.24546   0.80966  -0.00786
C          C       0.21900   0.51279   0.91309  -0.20024
C          C       0.48890   0.71785   0.82825  -0.20902
C          C       0.28350   0.77529   0.84026  -0.20716
C          C       0.76967   0.48563   0.83127  -0.20449
C          C       0.51444   0.29474   0.84883  -0.20170
C          C       0.71325   0.22776   0.88855  -0.20335
C          C       0.25852   0.45073   0.60764  -0.21296
C          C       0.55277   0.80383   0.70654  -0.22277
C          C       0.18907   0.73547   0.70360  -0.21711
C          C       0.74788   0.55026   0.73556  -0.21609
C          C       0.45384   0.18985   0.64373  -0.21467
C          C       0.79491   0.23555   0.60908  -0.21943
C          C       0.29314   0.47730   0.69778  -0.01135
C          C       0.52403   0.81364   0.72462   0.00920
C          C       0.17989   0.69853   0.71042  -0.00658
C          C       0.70957   0.52302   0.72832  -0.00372
C          C       0.47913   0.18134   0.68896   0.00494
C          C       0.80892   0.27679   0.66257   0.00380
C          C       0.32600   0.47373   0.65113   0.03115
C          C       0.52695   0.84670   0.70130   0.00951
C          C       0.14474   0.66453   0.67487   0.02609
C          C       0.67964   0.52669   0.69783   0.00047
C          C       0.47427   0.14346   0.65846   0.02810
C          C       0.84310   0.30445   0.61307   0.01261
C          C       0.48295   0.48246   0.71152   0.02973
C          C       0.51016   0.99131   0.71912   0.03084
C          C       0.99733   0.50654   0.71041   0.02909
C          C       0.51892   0.51558   0.73314   0.02523
C          C       0.47868   0.99495   0.70893   0.02590
C          C       0.99323   0.46940   0.68901   0.02852
C          C       0.45622   0.52567   0.73850   0.12721
C          C       0.47017   0.92398   0.72809   0.12507
C          C       0.06574   0.53448   0.70507   0.12389
C          C       0.54707   0.47475   0.71827   0.11524
C          C       0.52074   0.06469   0.72921   0.12442
C          C       0.92493   0.44257   0.70699   0.12026
C          C       0.42394   0.52865   0.75341  -0.24446
C          C       0.46938   0.89099   0.73605  -0.24376
C          C       0.09994   0.56660   0.69985  -0.24228
C          C       0.57950   0.47258   0.70995  -0.24684
C          C       0.52327   0.09959   0.73585  -0.23495
C          C       0.89110   0.41004   0.71056  -0.23585
C          C       0.38833   0.49575   0.70210   0.24053
C          C       0.50056   0.88415   0.69775   0.23426
C          C       0.10441   0.60003   0.67187   0.22982
C          C       0.61526   0.50213   0.68610   0.23251
C          C       0.49406   0.10242   0.68828   0.22733
C          C       0.88574   0.37093   0.64870   0.23406
C          C       0.38835   0.45838   0.61475  -0.22533
C          C       0.53209   0.91079   0.62158  -0.21667
C          C       0.07092   0.59603   0.62037  -0.22057
C          C       0.61553   0.53196   0.63704  -0.21918
C          C       0.46156   0.06512   0.61553  -0.22874
C          C       0.91740   0.36622   0.55690  -0.22066
C          C       0.41960   0.45552   0.61285  -0.01076
C          C       0.53295   0.94340   0.61756  -0.00065
C          C       0.03736   0.56466   0.62642  -0.01497
C          C       0.58361   0.53384   0.64330  -0.00416
C          C       0.45845   0.03125   0.61818  -0.01109
C          C       0.95118   0.39846   0.56403  -0.01274
S          S       0.18263   0.44904   0.17050   0.12590
S          S       0.56049   0.74246   0.25264   0.12034
S          S       0.26641   0.82327   0.27525   0.12259
S          S       0.81945   0.56863   0.29050   0.11035
S          S       0.45121   0.26255   0.20041   0.12326
S          S       0.73762   0.18389   0.19018   0.11713
S          S       0.29173   0.52087   0.38289   0.12292
S          S       0.48571   0.78436   0.27520   0.12166
S          S       0.22425   0.70802   0.27524   0.11732
S          S       0.70461   0.48860   0.26781   0.11721
S          S       0.52404   0.23070   0.31171   0.11854
S          S       0.78361   0.30745   0.34524   0.11091
S          S       0.18558   0.44532   0.64026   0.12312
S          S       0.56035   0.74208   0.74899   0.12173
S          S       0.25483   0.81179   0.76279   0.12429
S          S       0.81668   0.55518   0.79911   0.11696
S          S       0.44934   0.25982   0.68866   0.12196
S          S       0.72954   0.17015   0.68629   0.11183
S          S       0.29204   0.51769   0.88327   0.12393
S          S       0.48110   0.77928   0.78552   0.11911
S          S       0.21805   0.69843   0.77469   0.11600
S          S       0.70066   0.48034   0.76543   0.10446
S          S       0.51907   0.22451   0.80179   0.12184
S          S       0.77906   0.29338   0.81623   0.11401
N          N       0.12132   0.47059   0.28372  -0.30155
N          N       0.53740   0.66622   0.32162  -0.32399
N          N       0.34557   0.88308   0.31208  -0.32837
N          N       0.87930   0.55134   0.34743  -0.31831
N          N       0.46699   0.34460   0.27732  -0.31569
N          N       0.66452   0.13156   0.32973  -0.31332
N          N       0.45033   0.48706   0.18983   0.04764
N          N       0.51554   0.96159   0.18961   0.01482
N          N       0.03844   0.54971   0.18141   0.01187
N          N       0.54739   0.50917   0.20230   0.01880
N          N       0.49575   0.03812   0.19254   0.02465
N          N       0.96117   0.45295   0.16693   0.02491
N          N       0.35482   0.50057   0.23677  -0.31342
N          N       0.50621   0.85800   0.20475  -0.32936
N          N       0.14508   0.64431   0.18743  -0.32232
N          N       0.64434   0.50212   0.20584  -0.32614
N          N       0.50756   0.14622   0.21745  -0.31991
N          N       0.85653   0.35968   0.20738  -0.31700
N          N       0.12003   0.45950   0.77370  -0.30248
N          N       0.54076   0.66646   0.82096  -0.32455
N          N       0.33470   0.87625   0.81817  -0.32471
N          N       0.87264   0.53363   0.84155  -0.31546
N          N       0.46713   0.34319   0.77297  -0.31564
N          N       0.65508   0.12109   0.82337  -0.31276
N          N       0.45314   0.48785   0.69235   0.02801
N          N       0.50456   0.95355   0.69263   0.01264
N          N       0.03322   0.53554   0.68687   0.02042
N          N       0.54973   0.50859   0.70340   0.01502
N          N       0.48573   0.03013   0.68942   0.01984
N          N       0.95703   0.43726   0.65760   0.02277
N          N       0.35812   0.50180   0.73474  -0.31385
N          N       0.49755   0.85263   0.72460  -0.32762
N          N       0.13902   0.63162   0.69184  -0.32363
N          N       0.64492   0.49879   0.70562  -0.32277
N          N       0.49980   0.13895   0.70948  -0.31913
N          N       0.85205   0.34252   0.67810  -0.32119

