data_crystal

_audit_creation_method 'AiiDA-DDEC plugin'

_cell_length_a        38.51134
_cell_length_b        38.58838
_cell_length_c         8.04384

_cell_angle_alpha     97.89119
_cell_angle_beta     111.45019
_cell_angle_gamma     119.76256

_symmetry_space_group_name_Hall 'P 1'
_symmetry_space_group_name_H-M  'P 1'

loop_
_symmetry_equiv_pos_as_xyz
 'x,y,z'

loop_
_atom_site_label
_atom_site_type_symbol
_atom_site_fract_x
_atom_site_fract_y
_atom_site_fract_z
_atom_site_charge
H          H       0.59215   0.56724   0.16583   0.10261
H          H       0.43735   0.02209   0.16710   0.10843
H          H       0.98504   0.40823   0.13347   0.10445
H          H       0.39192   0.41212   0.06286   0.10758
H          H       0.58503   0.97887   0.14168   0.10317
H          H       0.02358   0.59124   0.08018   0.09788
H          H       0.65226   0.56249   0.16690   0.11034
H          H       0.44542   0.08950   0.19450   0.10958
H          H       0.91560   0.34426   0.09292   0.10763
H          H       0.33076   0.41687   0.05533   0.10835
H          H       0.57515   0.91069   0.10563   0.10981
H          H       0.09109   0.65066   0.09803   0.10629
H          H       0.59291   0.44389   0.25417   0.11530
H          H       0.58571   0.15413   0.32245   0.11843
H          H       0.87056   0.42049   0.21624   0.11793
H          H       0.42187   0.55521   0.25887   0.11787
H          H       0.45851   0.86200   0.18765   0.11585
H          H       0.16510   0.59889   0.32521   0.11774
H          H       0.42909   0.41734   0.31991   0.10496
H          H       0.62858   0.02558   0.40610   0.10875
H          H       0.01029   0.59841   0.25830   0.10338
H          H       0.60751   0.59937   0.42480   0.10729
H          H       0.45046   0.01290   0.39432   0.09901
H          H       0.03565   0.44336   0.42915   0.10872
H          H       0.42154   0.35031   0.31728   0.12500
H          H       0.69515   0.08580   0.40283   0.11478
H          H       0.94937   0.60212   0.26073   0.11783
H          H       0.61558   0.66731   0.43571   0.11669
H          H       0.37995   0.95144   0.36127   0.11843
H          H       0.09739   0.43600   0.46141   0.12207
H          H       0.54248   0.39821   0.26847   0.10671
H          H       0.62206   0.14144   0.24067   0.10865
H          H       0.87901   0.47348   0.24704   0.10881
H          H       0.46979   0.59924   0.21411   0.11232
H          H       0.41066   0.86613   0.17723   0.10666
H          H       0.15725   0.54464   0.30773   0.10779
H          H       0.69819   0.55235   0.17846   0.06166
H          H       0.45921   0.14155   0.08099   0.06241
H          H       0.87366   0.30630   0.19268   0.05702
H          H       0.29075   0.43087   0.12651   0.06085
H          H       0.57387   0.85960   0.18943   0.06224
H          H       0.14791   0.68923   0.07984   0.05849
H          H       0.76677   0.57956   0.17827   0.10156
H          H       0.43147   0.18292   0.99165   0.10430
H          H       0.83348   0.23771   0.20575   0.10258
H          H       0.21867   0.40974   0.10953   0.10357
H          H       0.59798   0.81329   0.21097   0.10476
H          H       0.18783   0.75307   0.04003   0.10390
H          H       0.83329   0.57748   0.21714   0.11480
H          H       0.43699   0.25124   0.06099   0.11632
H          H       0.77089   0.18049   0.24674   0.11450
H          H       0.17296   0.42792   0.20635   0.11616
H          H       0.58939   0.74729   0.25890   0.11447
H          H       0.26092   0.81913   0.09598   0.11819
H          H       0.77164   0.45978   0.31349   0.10545
H          H       0.56282   0.31213   0.60328   0.10719
H          H       0.71908   0.25640   0.26095   0.10872
H          H       0.28926   0.56260   0.49441   0.10428
H          H       0.46594   0.70912   0.27952   0.10699
H          H       0.33904   0.78026   0.44017   0.10702
H          H       0.70462   0.46158   0.27119   0.11182
H          H       0.55751   0.24395   0.53435   0.11481
H          H       0.78020   0.31240   0.21036   0.11659
H          H       0.33472   0.54449   0.39465   0.10993
H          H       0.47324   0.77368   0.22209   0.11267
H          H       0.26597   0.71555   0.39439   0.11116
H          H       0.49477   0.66667   0.33663   0.06981
H          H       0.37865   0.84308   0.37597   0.06442
H          H       0.21851   0.54199   0.48609   0.06679
H          H       0.53835   0.35575   0.49287   0.07217
H          H       0.68524   0.19293   0.31776   0.06215
H          H       0.84464   0.49091   0.33349   0.06503
H          H       0.57405   0.56820   0.67006   0.10183
H          H       0.39660   0.01380   0.65302   0.10600
H          H       0.95167   0.38493   0.62274   0.10752
H          H       0.37096   0.41432   0.54115   0.10864
H          H       0.53987   0.96880   0.61757   0.10746
H          H       0.99408   0.57053   0.59160   0.09873
H          H       0.63295   0.56118   0.66927   0.10854
H          H       0.40566   0.08078   0.65266   0.10587
H          H       0.88376   0.32241   0.60235   0.10473
H          H       0.31109   0.41934   0.55037   0.10652
H          H       0.53121   0.90065   0.57363   0.11497
H          H       0.06177   0.63010   0.61276   0.10767
H          H       0.57279   0.44462   0.76929   0.11247
H          H       0.54606   0.14116   0.79212   0.12190
H          H       0.84063   0.40070   0.72122   0.11587
H          H       0.40446   0.55810   0.77852   0.11651
H          H       0.42591   0.85430   0.72689   0.11051
H          H       0.13367   0.57497   0.80881   0.12121
H          H       0.40518   0.41631   0.79802   0.10070
H          H       0.58583   0.01227   0.90734   0.10429
H          H       0.98449   0.57901   0.78237   0.10827
H          H       0.58806   0.60193   0.91693   0.10863
H          H       0.39918   0.99659   0.84893   0.10089
H          H       0.00300   0.41828   0.91074   0.10006
H          H       0.39740   0.34907   0.79398   0.12204
H          H       0.65237   0.06960   0.89530   0.12221
H          H       0.92387   0.58390   0.77826   0.12135
H          H       0.59472   0.66859   0.91598   0.12026
H          H       0.33217   0.93358   0.82604   0.12054
H          H       0.06645   0.41291   0.95509   0.12283
H          H       0.52021   0.39848   0.75828   0.10714
H          H       0.58239   0.12766   0.72111   0.10905
H          H       0.84716   0.45303   0.73370   0.10873
H          H       0.44924   0.59982   0.70535   0.11072
H          H       0.37817   0.85735   0.71381   0.10270
H          H       0.12667   0.52274   0.80978   0.10819
H          H       0.67802   0.54834   0.67531   0.06425
H          H       0.42583   0.13665   0.52176   0.06688
H          H       0.84100   0.28501   0.70522   0.05888
H          H       0.27229   0.43165   0.61914   0.05613
H          H       0.53888   0.85657   0.68923   0.06425
H          H       0.11273   0.66174   0.55427   0.05806
H          H       0.74560   0.57002   0.66488   0.10379
H          H       0.40393   0.18202   0.43443   0.10518
H          H       0.79740   0.21667   0.72219   0.10588
H          H       0.20091   0.40433   0.60334   0.10315
H          H       0.56625   0.81293   0.69341   0.10659
H          H       0.14857   0.72530   0.50738   0.10122
H          H       0.80784   0.56187   0.69784   0.11544
H          H       0.41450   0.25294   0.51128   0.11686
H          H       0.73270   0.16240   0.76226   0.11413
H          H       0.15016   0.41363   0.69727   0.11127
H          H       0.56390   0.74955   0.74151   0.11548
H          H       0.21890   0.79410   0.56106   0.11341
H          H       0.74181   0.44823   0.81747   0.10363
H          H       0.54405   0.31069   0.02985   0.10936
H          H       0.68564   0.24259   0.75614   0.10663
H          H       0.25801   0.55099   0.00097   0.10484
H          H       0.43941   0.70187   0.76838   0.10522
H          H       0.30399   0.76003   0.89443   0.10537
H          H       0.67870   0.45562   0.77859   0.10997
H          H       0.53323   0.23998   0.95715   0.11653
H          H       0.75015   0.29683   0.71611   0.11290
H          H       0.30893   0.54167   0.90818   0.11439
H          H       0.44178   0.76554   0.71886   0.11466
H          H       0.23395   0.69168   0.84222   0.11554
H          H       0.47281   0.66464   0.82559   0.06328
H          H       0.34052   0.82632   0.85766   0.06177
H          H       0.18586   0.52348   0.98313   0.06555
H          H       0.51901   0.35570   0.93847   0.06624
H          H       0.64835   0.17933   0.81484   0.06168
H          H       0.81498   0.47510   0.83675   0.06555
C          C       0.48504   0.48034   0.22909  -0.00852
C          C       0.54082   0.00666   0.26027  -0.02077
C          C       0.01559   0.52864   0.22974  -0.00748
C          C       0.52570   0.51676   0.25073  -0.01175
C          C       0.50581   0.01008   0.26002  -0.00402
C          C       0.01475   0.49274   0.25726  -0.00591
C          C       0.55945   0.51159   0.23613   0.02416
C          C       0.50849   0.04868   0.25060   0.02533
C          C       0.97179   0.45405   0.21898   0.03189
C          C       0.44580   0.48162   0.18975   0.03333
C          C       0.53169   0.96410   0.21511   0.03117
C          C       0.05459   0.56169   0.21767   0.03382
C          C       0.53265   0.55829   0.28750   0.02898
C          C       0.46769   0.97483   0.26765   0.02620
C          C       0.05601   0.49406   0.31782   0.02584
C          C       0.48446   0.44346   0.25352   0.03028
C          C       0.58398   0.04551   0.29914   0.03650
C          C       0.97862   0.53129   0.22565   0.03446
C          C       0.59375   0.54172   0.20048  -0.12049
C          C       0.47081   0.05105   0.20997  -0.11359
C          C       0.96172   0.41206   0.16441  -0.10779
C          C       0.39991   0.44401   0.11644  -0.12176
C          C       0.55902   0.95474   0.16598  -0.11868
C          C       0.05515   0.59381   0.14798  -0.13024
C          C       0.62762   0.53853   0.19760  -0.19366
C          C       0.47474   0.08882   0.21896  -0.18376
C          C       0.92252   0.37587   0.14182  -0.18052
C          C       0.36492   0.44658   0.10904  -0.17501
C          C       0.55307   0.91569   0.14279  -0.17735
C          C       0.09351   0.62721   0.15254  -0.17574
C          C       0.62822   0.50316   0.22282   0.20917
C          C       0.51744   0.12729   0.26954   0.21650
C          C       0.89074   0.37978   0.17554   0.21348
C          C       0.37414   0.48777   0.17713   0.20966
C          C       0.51807   0.88247   0.16481   0.20191
C          C       0.13488   0.63036   0.22464   0.20788
C          C       0.59242   0.47130   0.24121  -0.20002
C          C       0.55345   0.12459   0.28897  -0.21298
C          C       0.89737   0.41960   0.20497  -0.19045
C          C       0.41634   0.52415   0.21667  -0.18580
C          C       0.48656   0.88868   0.18148  -0.19089
C          C       0.13358   0.59676   0.27521  -0.18413
C          C       0.55756   0.47404   0.24490   0.04697
C          C       0.54900   0.08551   0.27035   0.04174
C          C       0.93620   0.45640   0.21993   0.03367
C          C       0.45162   0.52188   0.21605   0.03667
C          C       0.49163   0.92801   0.20251   0.03298
C          C       0.09432   0.56179   0.26581   0.03646
C          C       0.45131   0.41162   0.28856  -0.12175
C          C       0.62590   0.04954   0.35832  -0.12623
C          C       0.98032   0.56936   0.24122  -0.12309
C          C       0.57680   0.59864   0.36825  -0.12771
C          C       0.43981   0.98043   0.32784  -0.12519
C          C       0.06047   0.46403   0.39054  -0.11399
C          C       0.44761   0.37436   0.29252  -0.16311
C          C       0.66364   0.08361   0.36102  -0.15806
C          C       0.94677   0.57242   0.25000  -0.15446
C          C       0.58173   0.63694   0.37859  -0.15812
C          C       0.40076   0.94619   0.31505  -0.16278
C          C       0.09556   0.46026   0.41275  -0.17047
C          C       0.47994   0.36857   0.27734   0.21271
C          C       0.66188   0.11631   0.30643   0.21264
C          C       0.90889   0.53757   0.25008   0.20268
C          C       0.54255   0.63743   0.31250   0.21029
C          C       0.38889   0.90389   0.25330   0.21665
C          C       0.13005   0.48836   0.37426   0.20604
C          C       0.51671   0.40230   0.27073  -0.22777
C          C       0.62377   0.11610   0.27748  -0.21184
C          C       0.90746   0.50056   0.24463  -0.21859
C          C       0.50012   0.59933   0.26051  -0.20913
C          C       0.41891   0.89843   0.21621  -0.22941
C          C       0.13051   0.52278   0.33541  -0.22783
C          C       0.51973   0.43965   0.25731   0.04736
C          C       0.58611   0.08280   0.28324   0.04450
C          C       0.94081   0.49651   0.23194   0.04334
C          C       0.49491   0.56034   0.25596   0.04323
C          C       0.45865   0.93314   0.22634   0.04926
C          C       0.09454   0.52668   0.31024   0.04824
C          C       0.50535   0.32675   0.36945   0.07032
C          C       0.70526   0.18295   0.28720   0.07529
C          C       0.84446   0.51639   0.28746   0.07259
C          C       0.52227   0.68576   0.30417   0.06971
C          C       0.34694   0.84075   0.29655   0.06907
C          C       0.20119   0.50726   0.40745   0.07168
C          C       0.69465   0.52393   0.20540   0.07579
C          C       0.49161   0.16976   0.20967   0.07337
C          C       0.84800   0.31199   0.18696   0.06517
C          C       0.30625   0.46566   0.18876   0.06237
C          C       0.54190   0.83674   0.18896   0.05927
C          C       0.17901   0.69219   0.17602   0.07986
C          C       0.73152   0.52048   0.22168   0.05786
C          C       0.49461   0.20932   0.25789   0.05817
C          C       0.81024   0.27847   0.20273   0.06332
C          C       0.27973   0.47627   0.24536   0.06674
C          C       0.53595   0.79772   0.21304   0.06092
C          C       0.22239   0.72993   0.21201   0.06349
C          C       0.76812   0.55340   0.20760  -0.12640
C          C       0.45990   0.21114   0.12661  -0.12528
C          C       0.80786   0.24126   0.21569  -0.13651
C          C       0.23417   0.44315   0.19541  -0.13467
C          C       0.56893   0.79017   0.22465  -0.13279
C          C       0.22117   0.75955   0.12969  -0.12485
C          C       0.80509   0.55259   0.22962  -0.10688
C          C       0.46269   0.24889   0.16387  -0.10663
C          C       0.77355   0.20958   0.23940  -0.11207
C          C       0.20860   0.45289   0.24849  -0.10323
C          C       0.56451   0.75371   0.25192  -0.10520
C          C       0.26150   0.79616   0.15939  -0.09918
C          C       0.80667   0.51869   0.26806   0.06225
C          C       0.50026   0.28591   0.33486   0.05373
C          C       0.74094   0.21459   0.25571   0.05776
C          C       0.22814   0.49615   0.35695   0.05530
C          C       0.52729   0.72386   0.27175   0.05093
C          C       0.30433   0.80365   0.27013   0.06013
C          C       0.77016   0.48578   0.28272  -0.12480
C          C       0.53420   0.28374   0.46926  -0.12906
C          C       0.74357   0.25192   0.24431  -0.12701
C          C       0.27394   0.52917   0.40956  -0.12896
C          C       0.49445   0.73156   0.26124  -0.12777
C          C       0.30577   0.77429   0.35426  -0.13614
C          C       0.73298   0.48648   0.25937  -0.10069
C          C       0.53145   0.24596   0.43194  -0.10511
C          C       0.77733   0.28319   0.21667  -0.09401
C          C       0.29930   0.51948   0.35461  -0.09573
C          C       0.49834   0.76751   0.22999  -0.11953
C          C       0.26546   0.73814   0.32793  -0.10414
C          C       0.46497   0.48188   0.72653  -0.01305
C          C       0.50017   0.99653   0.76755  -0.00811
C          C       0.98586   0.50698   0.73414  -0.01101
C          C       0.50642   0.51852   0.75367  -0.01073
C          C       0.46498  -0.00006   0.76576  -0.00965
C          C       0.98367   0.47006   0.75318  -0.01357
C          C       0.54022   0.51295   0.74157   0.03137
C          C       0.46798   0.03849   0.74705   0.02942
C          C       0.94034   0.43188   0.71460   0.03339
C          C       0.42595   0.48356   0.68587   0.03564
C          C       0.49219   0.95461   0.72437   0.03120
C          C       0.02474   0.54002   0.72181   0.02934
C          C       0.51329   0.56008   0.78710   0.02876
C          C       0.42696   0.96398   0.77296   0.02429
C          C       0.02441   0.47065   0.80979   0.02946
C          C       0.46320   0.44433   0.74834   0.01994
C          C       0.54306   0.03401   0.79950   0.03159
C          C       0.95020   0.51096   0.73698   0.02936
C          C       0.57490   0.54248   0.70581  -0.12824
C          C       0.43063   0.04193   0.69531  -0.11691
C          C       0.92950   0.38959   0.66000  -0.11463
C          C       0.37967   0.44612   0.60584  -0.11255
C          C       0.51744   0.94540   0.65776  -0.10597
C          C       0.02544   0.57266   0.65729  -0.11947
C          C       0.60800   0.53802   0.70157  -0.17731
C          C       0.43507   0.07959   0.68835  -0.19321
C          C       0.89098   0.35424   0.64606  -0.17396
C          C       0.34548   0.44901   0.60736  -0.18008
C          C       0.51230   0.90673   0.63079  -0.18641
C          C       0.06383   0.60600   0.66216  -0.18634
C          C       0.60828   0.50283   0.73204   0.20232
C          C       0.47815   0.11702   0.73476   0.20359
C          C       0.86016   0.35933   0.68279   0.21006
C          C       0.35579   0.49025   0.68869   0.20649
C          C       0.48060   0.87437   0.66886   0.20319
C          C       0.10430   0.60784   0.72274   0.20578
C          C       0.57235   0.47181   0.75198  -0.18412
C          C       0.51364   0.11283   0.76452  -0.20136
C          C       0.86688   0.39911   0.70760  -0.19054
C          C       0.39804   0.52675   0.72910  -0.19226
C          C       0.45118   0.88058   0.70724  -0.20233
C          C       0.10286   0.57381   0.76881  -0.19150
C          C       0.53744   0.47504   0.75035   0.04198
C          C       0.50873   0.07409   0.76031   0.04051
C          C       0.90555   0.43529   0.71914   0.03316
C          C       0.43247   0.52410   0.71957   0.03979
C          C       0.45504   0.91936   0.72864   0.03699
C          C       0.06387   0.53947   0.76453   0.04171
C          C       0.42850   0.41132   0.77357  -0.12788
C          C       0.58382   0.03613   0.85612  -0.11719
C          C       0.95363   0.54996   0.75956  -0.13102
C          C       0.55692   0.60046   0.86017  -0.11952
C          C       0.39416   0.96590   0.80826  -0.13309
C          C       0.02863   0.43996   0.87792  -0.12247
C          C       0.42448   0.37384   0.77592  -0.17192
C          C       0.62147   0.06844   0.85293  -0.14743
C          C       0.91996   0.55353   0.76271  -0.15663
C          C       0.56120   0.63829   0.86399  -0.15322
C          C       0.35642   0.93047   0.79952  -0.15229
C          C       0.06437   0.43695   0.90514  -0.16205
C          C       0.45736   0.36836   0.76436   0.21222
C          C       0.62094   0.10138   0.79680   0.20929
C          C       0.88021   0.51826   0.75035   0.20587
C          C       0.52181   0.63835   0.79925   0.21407
C          C       0.34912   0.88981   0.75886   0.22043
C          C       0.09952   0.46611   0.87195   0.20876
C          C       0.49485   0.40270   0.76474  -0.22385
C          C       0.58340   0.10261   0.76459  -0.22210
C          C       0.87721   0.48035   0.74062  -0.22072
C          C       0.47992   0.60045   0.75326  -0.22218
C          C       0.38315   0.88823   0.74259  -0.21905
C          C       0.09953   0.50037   0.83404  -0.22159
C          C       0.49886   0.44067   0.75795   0.05146
C          C       0.54572   0.07089   0.77593   0.04234
C          C       0.91099   0.47592   0.73472   0.04033
C          C       0.47549   0.56210   0.75545   0.04713
C          C       0.42189   0.92401   0.75208   0.04516
C          C       0.06338   0.50399   0.80695   0.04158
C          C       0.48446   0.32660   0.82478   0.07327
C          C       0.66785   0.16821   0.78723   0.07178
C          C       0.81565   0.50010   0.78364   0.07809
C          C       0.49940   0.68460   0.79039   0.06932
C          C       0.30806   0.82264   0.77636   0.08018
C          C       0.17127   0.48949   0.90570   0.07289
C          C       0.67353   0.52016   0.70822   0.06775
C          C       0.45897   0.16375   0.65155   0.06108
C          C       0.81675   0.29249   0.70262   0.06404
C          C       0.28724   0.46583   0.69465   0.06667
C          C       0.50705   0.83129   0.68285   0.07008
C          C       0.14505   0.66665   0.65109   0.06712
C          C       0.70820   0.51342   0.72105   0.06197
C          C       0.46775   0.20627   0.69216   0.05586
C          C       0.77791   0.26037   0.71719   0.06124
C          C       0.25835   0.47254   0.74974   0.06620
C          C       0.50376   0.79299   0.70154   0.05485
C          C       0.18676   0.70443   0.67482   0.06698
C          C       0.74486   0.54334   0.69822  -0.12571
C          C       0.43447   0.21024   0.56532  -0.12963
C          C       0.77288   0.22226   0.73053  -0.13154
C          C       0.21339   0.43639   0.69188  -0.13527
C          C       0.53847   0.78846   0.70960  -0.12778
C          C       0.18289   0.73337   0.59334  -0.13276
C          C       0.77963   0.53908   0.71647  -0.10499
C          C       0.43997   0.24937   0.60666  -0.10616
C          C       0.73711   0.19194   0.75176  -0.09720
C          C       0.18493   0.44133   0.74273  -0.10476
C          C       0.53735   0.75324   0.73645  -0.11693
C          C       0.22171   0.77158   0.62250  -0.10464
C          C       0.77921   0.50490   0.76169   0.06348
C          C       0.47925   0.28585   0.77627   0.05973
C          C       0.70517   0.19886   0.76108   0.06270
C          C       0.20070   0.48279   0.85552   0.06033
C          C       0.50151   0.72159   0.75778   0.05805
C          C       0.26610   0.78200   0.73420   0.06163
C          C       0.74232   0.47472   0.78285  -0.13028
C          C       0.51349   0.28245   0.89898  -0.12738
C          C       0.71006   0.23696   0.74702  -0.13201
C          C       0.24562   0.51890   0.91344  -0.12527
C          C       0.46680   0.72611   0.74972  -0.13349
C          C       0.26979   0.75226   0.80921  -0.12580
C          C       0.70712   0.47858   0.76146  -0.10709
C          C       0.50776   0.24320   0.85888  -0.10624
C          C       0.74559   0.26710   0.72448  -0.11243
C          C       0.27411   0.51401   0.86232  -0.10157
C          C       0.46769   0.76111   0.72102  -0.10432
C          C       0.23094   0.71415   0.78100  -0.09342
N          N       0.66116   0.49653   0.22764  -0.30317
N          N       0.52503   0.16766   0.30926  -0.28377
N          N       0.85213   0.34686   0.17579  -0.28801
N          N       0.34582   0.49617   0.21393  -0.28942
N          N       0.51162   0.84396   0.17396  -0.29494
N          N       0.17718   0.66432   0.25219  -0.29279
N          N       0.47285   0.32879   0.25962  -0.26456
N          N       0.69826   0.14634   0.28417  -0.29851
N          N       0.87521   0.54251   0.24909  -0.29842
N          N       0.54917   0.67559   0.29688  -0.28306
N          N       0.34774   0.86994   0.23275  -0.27578
N          N       0.15885   0.47790   0.35824  -0.27376
N          N       0.64046   0.49505   0.73822  -0.30069
N          N       0.48829   0.15821   0.76184  -0.27260
N          N       0.82222   0.32779   0.69086  -0.29283
N          N       0.32761   0.49783   0.73288  -0.28920
N          N       0.47506   0.83578   0.66906  -0.29292
N          N       0.14566   0.64117   0.73971  -0.29162
N          N       0.45008   0.32836   0.73866  -0.27300
N          N       0.65860   0.13076   0.78049  -0.28052
N          N       0.84665   0.52408   0.74198  -0.29210
N          N       0.52725   0.67599   0.78087  -0.28644
N          N       0.30798   0.85318   0.72724  -0.28038
N          N       0.12990   0.45775   0.85870  -0.28554

