data_crystal

_audit_creation_method 'AiiDA-DDEC plugin'

_cell_length_a        25.53889
_cell_length_b        25.56575
_cell_length_c         8.19918

_cell_angle_alpha     92.24924
_cell_angle_beta     87.43605
_cell_angle_gamma     90.82932

_symmetry_space_group_name_Hall 'P 1'
_symmetry_space_group_name_H-M  'P 1'

loop_
_symmetry_equiv_pos_as_xyz
 'x,y,z'

loop_
_atom_site_label
_atom_site_type_symbol
_atom_site_fract_x
_atom_site_fract_y
_atom_site_fract_z
_atom_site_charge
H          H       0.17349   0.10221   0.35820   0.11825
H          H       0.82461   0.89425   0.39519   0.11757
H          H       0.10090   0.83111   0.10853   0.12573
H          H       0.89681   0.17399   0.12567   0.12575
H          H       0.19979   0.07508   0.13403   0.10476
H          H       0.79562   0.92747   0.15271   0.10610
H          H       0.07075   0.79926   0.33916   0.09957
H          H       0.93311   0.20047   0.35646   0.10051
H          H       0.29667   0.07409   0.13757   0.11301
H          H       0.69946   0.92721   0.15929   0.11024
H          H       0.07417   0.70305   0.32960   0.10942
H          H       0.93564   0.29700   0.36311   0.11102
H          H       0.36950   0.08514   0.47583   0.09599
H          H       0.63049   0.91335   0.53142   0.09589
H          H       0.08092   0.63853   0.02968   0.09468
H          H       0.91773   0.36655   0.02056   0.09398
H          H       0.46409   0.08538   0.49546   0.10982
H          H       0.53538   0.91263   0.53344   0.10838
H          H       0.08415   0.54343   0.03800   0.11235
H          H       0.91474   0.46096   0.00459   0.10742
H          H       0.09830   0.17466   0.36931   0.11732
H          H       0.89845   0.82075   0.38818   0.11640
H          H       0.17433   0.90747   0.10396   0.12371
H          H       0.82359   0.09794   0.13004   0.12664
H          H       0.45472   0.91826   0.04959   0.11103
H          H       0.54183   0.08465   0.00309   0.11039
H          H       0.92048   0.53547   0.45507   0.11040
H          H       0.08972   0.45963   0.50607   0.10795
H          H       0.35996   0.92291   0.02514   0.09592
H          H       0.63649   0.07919   0.01117   0.09428
H          H       0.92290   0.63031   0.44791   0.09566
H          H       0.08564   0.36481   0.51955   0.09616
H          H       0.29979   0.93336   0.33554   0.10866
H          H       0.70428   0.05858   0.35610   0.11007
H          H       0.93200   0.70446   0.15149   0.11237
H          H       0.07059   0.29955   0.14734   0.11078
H          H       0.20347   0.93271   0.33075   0.09967
H          H       0.80057   0.05929   0.35635   0.10028
H          H       0.93268   0.80138   0.15220   0.10506
H          H       0.06951   0.20383   0.13633   0.10394
H          H       0.03098   0.97099   0.96853   0.27792
H          H       0.17387   0.10294   0.85725   0.11623
H          H       0.82726   0.89563   0.88186   0.11583
H          H       0.09879   0.82875   0.60553   0.12489
H          H       0.89749   0.17252   0.62676   0.12727
H          H       0.19832   0.07537   0.62309   0.10439
H          H       0.79594   0.92901   0.67054   0.10429
H          H       0.06993   0.79928   0.83190   0.10141
H          H       0.92935   0.20227   0.86605   0.09947
H          H       0.29475   0.07639   0.63117   0.11125
H          H       0.69946   0.92848   0.67602   0.11118
H          H       0.06943   0.70227   0.82850   0.11410
H          H       0.93004   0.29830   0.87316   0.10955
H          H       0.36791   0.08440   0.95639   0.09591
H          H       0.62945   0.91528   0.03261   0.09459
H          H       0.08628   0.63482   0.48746   0.09460
H          H       0.92128   0.36394   0.53399   0.09463
H          H       0.46291   0.08638   0.97634   0.11069
H          H       0.53462   0.91461   0.03019   0.11021
H          H       0.09015   0.53998   0.49622   0.11024
H          H       0.91864   0.45859   0.52047   0.10872
H          H       0.09910   0.17598   0.86433   0.11974
H          H       0.90269   0.82329   0.87513   0.11770
H          H       0.17289   0.90454   0.59706   0.12510
H          H       0.82354   0.09631   0.63103   0.12709
H          H       0.45477   0.91560   0.53153   0.11071
H          H       0.54275   0.08300   0.51184   0.10845
H          H       0.91650   0.53941   0.95316   0.11022
H          H       0.08548   0.46343   0.01042   0.10946
H          H       0.36044   0.92194   0.51466   0.09335
H          H       0.63755   0.07702   0.51220   0.09561
H          H       0.92001   0.63485   0.94911   0.09627
H          H       0.08223   0.36919   0.02556   0.09483
H          H       0.29844   0.93626   0.81886   0.11079
H          H       0.70384   0.06362   0.86491   0.11039
H          H       0.93156   0.69805   0.63033   0.11098
H          H       0.06953   0.29616   0.66555   0.11221
H          H       0.20128   0.93742   0.81948   0.10066
H          H       0.79971   0.06372   0.86270   0.09845
H          H       0.92935   0.79453   0.64033   0.10512
H          H       0.06671   0.19980   0.65488   0.10249
H          H       0.02957   0.96820   0.46189   0.27869
H          H       0.96887   0.03112   0.97231   0.27730
H          H       0.96889   0.02943   0.47225   0.27865
C          C       0.04669   0.10829   0.46118   0.19206
C          C       0.95081   0.88807   0.47368   0.19405
C          C       0.11049   0.95669   0.01784   0.18326
C          C       0.88835   0.04638   0.03317   0.18290
C          C       0.09466   0.13415   0.40227  -0.18930
C          C       0.90276   0.86175   0.42336  -0.19661
C          C       0.13394   0.91010   0.07106  -0.19246
C          C       0.86441   0.09417   0.09135  -0.19559
C          C       0.22150   0.04510   0.06340  -0.10858
C          C       0.77559   0.95674   0.08655  -0.10612
C          C       0.04097   0.77712   0.40665  -0.11259
C          C       0.96220   0.22147   0.42744  -0.11310
C          C       0.27597   0.04487   0.06409  -0.18859
C          C       0.72108   0.95636   0.08945  -0.19768
C          C       0.04307   0.72278   0.40182  -0.19636
C          C       0.96323   0.27590   0.43238  -0.19417
C          C       0.39048   0.04923   0.49149  -0.05322
C          C       0.60870   0.94938   0.52925  -0.04125
C          C       0.04650   0.61415   0.00974  -0.04538
C          C       0.95343   0.38984   0.01029  -0.05134
C          C       0.44335   0.04803   0.50069  -0.18036
C          C       0.55560   0.95026   0.52844  -0.18325
C          C       0.04709   0.56117   0.01309  -0.18709
C          C       0.95295   0.44270   0.00307  -0.17541
C          C       0.13518   0.00488   0.98364  -0.07757
C          C       0.86364   0.99706   0.00506  -0.07220
C          C      -0.00113   0.86266   0.49466  -0.07578
C          C      -0.00100   0.13470   0.49821  -0.07107
C          C       0.19326   0.00588   0.97874   0.06785
C          C       0.80576   0.99592   0.00815   0.05347
C          C       0.00008   0.80481   0.49113   0.06107
C          C      -0.00029   0.19266   0.50527   0.05990
C          C       0.30407   0.00480   0.97931   0.14987
C          C       0.69388   0.99589   0.01457   0.14171
C          C       0.00311   0.69330   0.48011   0.14258
C          C       0.00240   0.30371   0.51587   0.14358
C          C       0.47132   0.00154   0.00837   0.04320
C          C       0.52587   0.00002   0.01498   0.02891
C          C       0.00482   0.52561   0.48890   0.03272
C          C       0.00439   0.47131   0.50275   0.03814
C          C       0.43796   0.95558   0.02257  -0.18612
C          C       0.55906   0.04617   0.00827  -0.17899
C          C       0.95780   0.55542   0.47176  -0.18071
C          C       0.05135   0.44068   0.51032  -0.18237
C          C       0.38526   0.95698   0.00958  -0.03944
C          C       0.61202   0.04425   0.01070  -0.05710
C          C       0.95796   0.60833   0.46713  -0.05373
C          C       0.05032   0.38779   0.51883  -0.05106
C          C       0.27767   0.96388   0.40247  -0.19602
C          C       0.72400   0.03151   0.43086  -0.19300
C          C       0.96126   0.72510   0.07708  -0.18640
C          C       0.04009   0.27885   0.08153  -0.19797
C          C       0.22331   0.96375   0.39918  -0.11409
C          C       0.77835   0.03156   0.42994  -0.11264
C          C       0.96182   0.77954   0.07815  -0.10805
C          C       0.03930   0.22445   0.07626  -0.10598
C          C       0.89044   0.94790   0.48025   0.19318
C          C       0.10782   0.04908   0.45203   0.19104
C          C       0.95061   0.11097   0.02903   0.18230
C          C       0.04835   0.89224   0.02176   0.18291
C          C       0.86513   0.89907   0.42707  -0.19222
C          C       0.13274   0.09728   0.39663  -0.19711
C          C       0.90211   0.13330   0.08880  -0.19707
C          C       0.09630   0.87101   0.07321  -0.19430
C          C       0.04696   0.11067   0.96131   0.18879
C          C       0.95300   0.89109   0.96670   0.19215
C          C       0.10951   0.95398   0.51004   0.18255
C          C       0.88843   0.04466   0.53646   0.18479
C          C       0.09510   0.13581   0.90011  -0.19664
C          C       0.90579   0.86423   0.91237  -0.19573
C          C       0.13256   0.90743   0.56438  -0.19692
C          C       0.86446   0.09273   0.59305  -0.19402
C          C       0.22065   0.04477   0.55730  -0.10924
C          C       0.77576   0.95703   0.60012  -0.10630
C          C       0.04010   0.77860   0.90380  -0.11413
C          C       0.95961   0.22354   0.93141  -0.11233
C          C       0.27509   0.04561   0.56086  -0.19253
C          C       0.72123   0.95641   0.60188  -0.19450
C          C       0.04017   0.72411   0.90235  -0.19099
C          C       0.95969   0.27793   0.93638  -0.19978
C          C       0.38970   0.04924   0.97607  -0.03780
C          C       0.60792   0.95143   0.03044  -0.05619
C          C       0.05108   0.61069   0.48279  -0.05470
C          C       0.95692   0.38719   0.52024  -0.04914
C          C       0.44253   0.04898   0.98689  -0.18527
C          C       0.55488   0.95227   0.02740  -0.17921
C          C       0.05195   0.55775   0.48900  -0.18179
C          C       0.95673   0.44006   0.51331  -0.18131
C          C       0.13496   0.00238   0.47874  -0.07159
C          C       0.86362   0.99552   0.51142  -0.07292
C          C       0.00074   0.86567   0.99284  -0.07673
C          C      -0.00098   0.13712  -0.00373  -0.07100
C          C       0.19297   0.00376   0.47774   0.06115
C          C       0.80570   0.99469   0.51508   0.05951
C          C       0.00102   0.80768   0.99147   0.06790
C          C      -0.00082   0.19493   0.00141   0.05420
C          C       0.30453   0.00468   0.48471   0.14243
C          C       0.69458   0.99405   0.51783   0.15035
C          C       0.00054   0.69685   0.98882   0.14062
C          C      -0.00003   0.30678   0.01231   0.15002
C          C       0.47196  -0.00001   0.51339   0.03317
C          C       0.52653   0.99817   0.51885   0.03913
C          C       0.00037   0.52909   0.99513   0.04511
C          C       0.00019   0.47454   0.00127   0.02574
C          C       0.43835   0.95404   0.51745  -0.18084
C          C       0.55980   0.04436   0.51342  -0.17946
C          C       0.95379   0.55911   0.97283  -0.18687
C          C       0.04721   0.44429   0.01237  -0.17491
C          C       0.38561   0.95631   0.50711  -0.05578
C          C       0.61278   0.04224   0.51247  -0.04331
C          C       0.95444   0.61216   0.97050  -0.04665
C          C       0.04662   0.39147   0.02106  -0.05069
C          C       0.27672   0.96581   0.89169  -0.18916
C          C       0.72345   0.03497   0.93437  -0.19949
C          C       0.96156   0.72013   0.56323  -0.19370
C          C       0.04032   0.27560   0.59391  -0.19317
C          C       0.22226   0.96669   0.89166  -0.11263
C          C       0.77779   0.03463   0.93178  -0.11201
C          C       0.96051   0.77454   0.56928  -0.10945
C          C       0.03853   0.22118   0.58880  -0.10671
C          C       0.89148   0.94992   0.97302   0.19351
C          C       0.10792   0.05126   0.95528   0.19097
C          C       0.95067   0.10902   0.53076   0.18275
C          C       0.04686   0.88980   0.51761   0.18292
C          C       0.86748   0.90088   0.91628  -0.19434
C          C       0.13308   0.09880   0.89664  -0.19518
C          C       0.90222   0.13170   0.59032  -0.19250
C          C       0.09463   0.86860   0.56902  -0.19524
N          N       0.05509   0.05621   0.48370  -0.40511
N          N       0.94272   0.94065   0.50192  -0.40498
N          N       0.05849   0.94446   0.99551  -0.25746
N          N       0.94062   0.05821   0.00119  -0.25455
N          N       0.35936   0.00346   0.98347   0.00919
N          N       0.63881   0.99707   0.02057   0.04124
N          N       0.00422   0.63819   0.47606   0.03509
N          N       0.00335   0.35892   0.51983   0.03812
N          N       0.05528   0.05880   0.98771  -0.40500
N          N       0.94386   0.94344  -0.00317  -0.40612
N          N       0.05736   0.94177   0.48749  -0.25650
N          N       0.94066   0.05627   0.50388  -0.25493
N          N       0.35949   0.00360   0.49306   0.03622
N          N       0.63935   0.99499   0.51963   0.01483
N          N       0.00051   0.64148   0.98874   0.03218
N          N       0.00003   0.36179   0.01697   0.01892

