data_crystal

_audit_creation_method 'AiiDA-DDEC plugin'

_cell_length_a        36.92147
_cell_length_b        37.55683
_cell_length_c         8.05390

_cell_angle_alpha     86.10421
_cell_angle_beta     98.55310
_cell_angle_gamma     121.38722

_symmetry_space_group_name_Hall 'P 1'
_symmetry_space_group_name_H-M  'P 1'

loop_
_symmetry_equiv_pos_as_xyz
 'x,y,z'

loop_
_atom_site_label
_atom_site_type_symbol
_atom_site_fract_x
_atom_site_fract_y
_atom_site_fract_z
_atom_site_charge
H          H       0.04890   0.57190   0.26577   0.13217
H          H       0.11002   0.53380   0.05285   0.06906
H          H       0.16847   0.54412   0.99236   0.10812
H          H       0.25085   0.58398   0.45634   0.09997
H          H       0.24183   0.67722   0.14353   0.10719
H          H       0.16469   0.64245   0.17510   0.11758
H          H       0.29568   0.59389   0.28303   0.09787
H          H       0.41647   0.70179   0.20041   0.10376
H          H       0.31063   0.71556   0.25767   0.10190
H          H       0.44789   0.76565   0.37457   0.10442
H          H       0.49363   0.84218   0.33542   0.11839
H          H       0.39103   0.84051  -0.00209   0.10727
H          H       0.34598   0.76392   0.03223   0.10369
H          H       0.46645   0.61348   0.35063   0.10426
H          H       0.43725   0.65936   0.37096   0.10447
H          H       0.47887   0.58434   0.11178   0.05993
H          H       0.43161   0.47685   0.29302   0.13438
H          H       0.56858   0.52907   0.06621   0.13206
H          H       0.53033   0.43234   0.32527   0.06782
H          H       0.53147   0.37892   0.26147   0.10742
H          H       0.56644   0.33768   0.30970   0.10496
H          H       0.67461   0.43421   0.08687   0.10697
H          H       0.63986   0.47637   0.04330   0.11773
H          H       0.58681   0.29911   0.17557   0.10074
H          H       0.70173   0.29501   0.30762   0.10108
H          H       0.70767   0.41235   0.29804   0.10154
H          H       0.75595   0.32995   0.51877   0.10678
H          H       0.83102   0.35778   0.07521   0.11729
H          H       0.84829   0.46837   0.27645   0.10773
H          H       0.77019   0.43244   0.20342   0.10283
H          H       0.56213   0.23793   0.33284   0.10588
H          H       0.52114   0.16048   0.31123   0.11580
H          H       0.62365   0.16493   0.10006   0.10863
H          H       0.66396   0.24147   0.11836   0.10202
H          H       0.57515   0.10433   0.02464   0.07126
H          H       0.47889   0.04495   0.24737   0.12361
H          H       0.08152   0.44212   0.11795   0.06789
H          H       0.07728   0.46478   0.42698   0.06549
H          H       0.00158   0.41110   0.37432   0.09397
H          H       0.00285   0.38536   0.09268   0.09096
H          H       0.05102   0.36755   0.51904   0.11072
H          H       0.00475   0.34618   0.36720   0.12177
H          H       0.05366   0.38916   0.31564   0.11452
H          H       0.42347   0.89923   0.20604   0.06859
H          H       0.52709   0.95892   0.02261   0.12930
H          H       0.36511   0.93354   0.26523   0.06811
H          H       0.38782   0.95767   0.07972   0.06552
H          H       0.41469   0.02802   0.20463   0.09606
H          H       0.39664   0.00474   0.39572   0.08942
H          H       0.31963   0.96606   0.24617   0.11036
H          H       0.34354   0.02071   0.22537   0.12305
H          H       0.33875   0.99025   0.05591   0.11744
H          H       0.90366   0.46931   0.24973   0.06399
H          H       0.96171   0.43559   0.07596   0.13217
H          H       0.93179   0.53531   0.41326   0.06807
H          H       0.92057   0.55527   0.21836   0.06722
H          H       0.99706   0.61889   0.27448   0.09375
H          H       0.00544   0.59677   0.95898   0.09633
H          H       0.93414   0.60005   0.52747   0.11296
H          H       0.97999   0.64984   0.50931   0.12191
H          H       0.93866   0.62773   0.33759   0.11143
H          H       0.54316   0.61489   0.23251   0.05678
H          H       0.57382   0.64369   0.06763   0.07651
H          H       0.59315   0.58846   0.31604   0.09463
H          H       0.61514   0.64178   0.35160   0.08910
H          H       0.44134   0.36548   0.32498   0.06589
H          H       0.45662   0.39351   0.13513   0.06824
H          H       0.39289   0.39969   0.09198   0.09870
H          H       0.37891   0.37829   0.29027   0.09416
H          H       0.36470   0.30895   0.19789   0.10930
H          H       0.33428   0.32451   0.05507   0.12206
H          H       0.38098   0.32870   0.47916   0.11174
H          H       0.67299   0.02812   0.25396   0.11575
H          H       0.67063   0.99456   0.10283   0.12256
H          H       0.67985   0.03768   0.54531   0.10864
H          H       0.61510   0.05269   0.19738   0.06770
H          H       0.63135   0.06617   0.52782   0.06670
H          H       0.60454   0.99769   0.38289   0.08898
H          H       0.59704   0.98255   0.10646   0.09457
H          H       0.34656   0.52154   0.08295   0.12033
H          H       0.31793   0.56827   0.09488   0.10127
H          H       0.62980   0.60740   0.04709   0.12268
H          H       0.66654   0.62732   0.23288   0.11851
H          H       0.65441   0.66063   0.10202   0.11105
H          H       0.04336   0.56680   0.76543   0.13148
H          H       0.11600   0.53754   0.54441   0.06960
H          H       0.17436   0.54907   0.48384   0.10844
H          H       0.24501   0.57875   0.96462   0.10169
H          H       0.23642   0.67226   0.65191   0.10724
H          H       0.15952   0.63822   0.68606   0.11814
H          H       0.28897   0.58770   0.78375   0.09949
H          H       0.40922   0.69488   0.69086   0.10398
H          H       0.30515   0.70982   0.76695   0.10366
H          H       0.44357   0.75903   0.85191   0.10388
H          H       0.48805   0.83582   0.81730   0.11925
H          H       0.38137   0.83456   0.51360   0.10881
H          H       0.33742   0.75764   0.54319   0.10570
H          H       0.45899   0.60675   0.85285   0.10459
H          H       0.42955   0.65223   0.87283   0.10473
H          H       0.47253   0.57688   0.61776   0.06298
H          H       0.42535   0.46970   0.80703   0.13517
H          H       0.56102   0.52157   0.56914   0.13194
H          H       0.52381   0.42490   0.83195   0.06602
H          H       0.52699   0.37333   0.78303   0.10612
H          H       0.56182   0.33212   0.83013   0.10306
H          H       0.66794   0.42650   0.59106   0.10822
H          H       0.63312   0.46862   0.54632   0.11812
H          H       0.58068   0.29249   0.69017   0.10327
H          H       0.69517   0.28743   0.81398   0.09971
H          H       0.70186   0.40518   0.81301   0.10150
H          H       0.75169   0.32088   0.01023   0.10498
H          H       0.83507   0.36568   0.58777   0.11768
H          H       0.84120   0.46412   0.80109   0.10879
H          H       0.76305   0.42719   0.73090   0.10389
H          H       0.55655   0.23193   0.84950   0.10415
H          H       0.51395   0.15451   0.82297   0.11608
H          H       0.61416   0.15753   0.59886   0.11053
H          H       0.65576   0.23407   0.62078   0.10465
H          H       0.56547   0.09682   0.53100   0.07166
H          H       0.47000   0.03849   0.75821   0.12221
H          H       0.08367   0.44303   0.62521   0.06994
H          H       0.07060   0.46148   0.92031   0.06736
H          H       0.99496   0.40380   0.89138   0.09371
H          H       0.00213   0.39165   0.57965   0.09415
H          H       0.05549   0.36993  -0.00318   0.11183
H          H       0.00549   0.34316   0.86750   0.12168
H          H       0.04866   0.38902   0.79475   0.11315
H          H       0.41528   0.89204   0.72280   0.06514
H          H       0.51821   0.95182   0.54057   0.12642
H          H       0.35486   0.93039   0.76134   0.07135
H          H       0.38010   0.95296   0.57940   0.06413
H          H       0.40837   0.02421   0.69167   0.09502
H          H       0.39079   0.00360   0.88615   0.09126
H          H       0.31348   0.96729   0.74515   0.11207
H          H       0.34006   0.02175   0.70980   0.12313
H          H       0.33155   0.98743   0.54910   0.11735
H          H       0.89772   0.46768   0.76131   0.06636
H          H       0.96773   0.44028   0.57389   0.13130
H          H       0.93150   0.53726   0.92171   0.06457
H          H       0.91975   0.55661   0.72629   0.06704
H          H       0.99816   0.61551   0.75735   0.09179
H          H       0.00173   0.59855   0.47515   0.09662
H          H       0.94786   0.60819   0.04482   0.11191
H          H       0.99301   0.65504   0.99040   0.12072
H          H       0.94520   0.63074   0.84639   0.11114
H          H       0.54148   0.60934   0.72818   0.06172
H          H       0.56045   0.63433   0.53745   0.06834
H          H       0.61240   0.60558   0.59451   0.09285
H          H       0.59896   0.59631   0.80046   0.08836
H          H       0.43592   0.35819   0.81886   0.06807
H          H       0.45239   0.38869   0.63581   0.06716
H          H       0.38751   0.39412   0.59692   0.09854
H          H       0.37177   0.36736   0.78550   0.09282
H          H       0.36222   0.30235   0.66671   0.11210
H          H       0.33172   0.31910   0.53036   0.12335
H          H       0.38155   0.32983   0.00100   0.11356
H          H       0.65958   0.00971   0.72818   0.11667
H          H       0.65855   0.98320   0.55201   0.12243
H          H       0.69055   0.04794   0.05686   0.11161
H          H       0.60611   0.03838   0.70418   0.06717
H          H       0.64003   0.07533   0.01410   0.06975
H          H       0.61462   0.00225   0.91172   0.08944
H          H       0.58494   0.97108   0.56707   0.09891
H          H       0.34049   0.51610   0.57172   0.11840
H          H       0.31198   0.56293   0.58154   0.10343
H          H       0.63863   0.68133   0.62016   0.10955
H          H       0.66523   0.66729   0.78986   0.12164
H          H       0.62290   0.67414   0.82287   0.11352
C          C       0.02396   0.48483   0.02393   0.20128
C          C       0.05354   0.52678   0.43355  -0.00527
C          C       0.03109   0.54318   0.33345  -0.21013
C          C       0.09992   0.54746   0.44315   0.08770
C          C       0.16401   0.59387   0.33312   0.19578
C          C       0.18893   0.57735   0.41027  -0.16842
C          C       0.23205   0.59677   0.39271  -0.12474
C          C       0.25233   0.63330   0.29804   0.06134
C          C       0.22747   0.64991   0.22255  -0.13112
C          C       0.18422   0.63047   0.23879  -0.15287
C          C       0.29753   0.65236   0.27268   0.07786
C          C       0.31542   0.62744   0.26792  -0.18709
C          C       0.35820   0.64466   0.24324   0.07944
C          C       0.38362   0.68802   0.22526  -0.18609
C          C       0.36662   0.71377   0.22841   0.08143
C          C       0.32356   0.69553   0.25113  -0.18607
C          C       0.39353   0.75929   0.20685   0.05242
C          C       0.37564   0.61744   0.23261   0.05521
C          C       0.43569   0.78193   0.28957  -0.12609
C          C       0.46134   0.82475   0.26883  -0.16302
C          C       0.44509   0.84669   0.16817   0.20456
C          C       0.40306   0.82419   0.08353  -0.18105
C          C       0.37788   0.78118   0.10263  -0.12461
C          C       0.35029   0.57803   0.15343  -0.12361
C          C       0.40863   0.56485   0.21190   0.20668
C          C       0.43421   0.60416   0.29182  -0.18681
C          C       0.41774   0.62978   0.30302  -0.12239
C          C       0.46098   0.55244   0.15862   0.08838
C          C       0.48088   0.52742   0.16691  -0.00898
C          C       0.46139   0.48799   0.24220  -0.20284
C          C       0.48030   0.46410   0.25684   0.20493
C          C       0.51923   0.47846   0.19247  -0.00689
C          C       0.53849   0.51763   0.11496  -0.21127
C          C       0.52024   0.54221   0.10526   0.19873
C          C       0.53946   0.45366   0.21860   0.08579
C          C       0.58425   0.43163   0.15512   0.20045
C          C       0.56319   0.39156   0.22556  -0.17118
C          C       0.58265   0.36799   0.25027  -0.12284
C          C       0.62358   0.38316   0.20497   0.05778
C          C       0.64385   0.42263   0.13010  -0.13069
C          C       0.62447   0.44624   0.10413  -0.15425
C          C       0.64469   0.35859   0.23359   0.07749
C          C       0.62108   0.31497   0.21682  -0.18287
C          C       0.64115   0.29157   0.24350   0.07873
C          C       0.68575   0.31273   0.28719  -0.18626
C          C       0.71026   0.35629   0.30555   0.08069
C          C       0.68921   0.37872   0.27859  -0.18670
C          C       0.75710   0.37793   0.35225   0.05335
C          C       0.61603   0.24567   0.22553   0.05748
C          C       0.77622   0.35966   0.46112  -0.12919
C          C       0.82047   0.37965   0.50151  -0.15523
C          C       0.84742   0.41853   0.43191   0.20071
C          C       0.82833   0.43771   0.32796  -0.17315
C          C       0.78411   0.41764   0.28857  -0.12321
C          C       0.57511   0.22208   0.27682  -0.12926
C          C       0.55209   0.17875   0.26597  -0.15193
C          C       0.56865   0.15709   0.20081   0.19862
C          C       0.60971   0.18064   0.14971  -0.16939
C          C       0.63273   0.22393   0.16202  -0.12292
C          C       0.55047   0.09100   0.10870   0.09211
C          C       0.52551   0.04559   0.11644  -0.00003
C          C       0.48798   0.02546   0.19346  -0.21649
C          C       0.53938   0.02102   0.05352   0.20002
C          C       0.05659   0.44408   0.03198   0.01898
C          C       0.01856   0.40066   0.98142  -0.15219
C          C       0.03334   0.37549   0.41627  -0.37130
C          C       0.45555   0.91281   0.16967   0.09503
C          C       0.47936   0.95791   0.14924  -0.00510
C          C       0.51682   0.97800   0.07188  -0.21095
C          C       0.46489   0.98237   0.20858   0.20692
C          C       0.39135   0.96184   0.21627   0.02694
C          C       0.38954  -0.00012   0.25879  -0.15449
C          C       0.34551   0.99389   0.19314  -0.37513
C          C       0.91657   0.46287   0.37202   0.08802
C          C       0.96312   0.48507   0.40413  -0.01048
C          C       0.98552   0.46930   0.50786  -0.20628
C          C       0.98690   0.52293   0.31948   0.20111
C          C       0.94635   0.55611   0.30919   0.01676
C          C       0.97882   0.60022   0.37581  -0.15673
C          C       0.95679   0.62057   0.44108  -0.37014
C          C       0.56472   0.61631   0.14810   0.02044
C          C       0.60389   0.61834   0.25164  -0.14790
C          C       0.64064   0.62903   0.15318  -0.36884
C          C       0.43954   0.38919   0.24245   0.01817
C          C       0.39315   0.37662   0.18277  -0.15398
C          C       0.36705   0.33268   0.10508  -0.37222
C          C       0.60501   0.03644   0.56778   0.02769
C          C       0.60990   0.00064   0.52045  -0.15533
C          C       0.66624   0.02082   0.11908  -0.37170
C          C       0.36608   0.55181   0.14544  -0.15898
C          C       0.02989   0.48954   0.52179   0.20354
C          C       0.04761   0.52216   0.93616  -0.00435
C          C       0.02524   0.53828   0.83387  -0.20660
C          C       0.09407   0.54316   0.94890   0.09272
C          C       0.15854   0.58931   0.84205   0.19719
C          C       0.18319   0.57248   0.91937  -0.16852
C          C       0.22630   0.59172   0.90184  -0.12449
C          C       0.24664   0.62809   0.80640   0.05903
C          C       0.22207   0.64509   0.73167  -0.12782
C          C       0.17895   0.62603   0.74884  -0.15509
C          C       0.29149   0.64652   0.77756   0.07922
C          C       0.30884   0.62125   0.76865  -0.19236
C          C       0.35129   0.63826   0.73952   0.07894
C          C       0.37674   0.68152   0.71967  -0.18291
C          C       0.36022   0.70752   0.72628   0.08110
C          C       0.31764   0.68962   0.75536  -0.18836
C          C       0.38698   0.75291   0.70266   0.05245
C          C       0.36875   0.61116   0.72717   0.05389
C          C       0.43007   0.77547   0.77568  -0.12249
C          C       0.45510   0.81841   0.75701  -0.16154
C          C       0.43736   0.84051   0.66788   0.20631
C          C       0.39458   0.81802   0.59082  -0.18248
C          C       0.36999   0.77491   0.60774  -0.12592
C          C       0.34399   0.57232   0.64353  -0.12935
C          C       0.40183   0.55848   0.70937   0.20697
C          C       0.42705   0.59762   0.79082  -0.18524
C          C       0.41051   0.62318   0.80117  -0.11983
C          C       0.45424   0.54520   0.66604   0.09102
C          C       0.47419   0.52015   0.67888  -0.01150
C          C       0.45521   0.48097   0.75665  -0.20759
C          C       0.47432   0.45726   0.76953   0.19828
C          C       0.51324   0.47180   0.70411  -0.00467
C          C       0.53164   0.51050   0.62296  -0.20482
C          C       0.51279   0.53457   0.61202   0.20548
C          C       0.53361   0.44707   0.72837   0.08657
C          C       0.57859   0.42506   0.66667   0.20003
C          C       0.55819   0.38559   0.74265  -0.17232
C          C       0.57762   0.36202   0.76751  -0.12307
C          C       0.61799   0.37660   0.71768   0.05552
C          C       0.63770   0.41546   0.63799  -0.12911
C          C       0.61825   0.43903   0.61147  -0.15433
C          C       0.63890   0.35183   0.74676   0.08201
C          C       0.61501   0.30823   0.72981  -0.18841
C          C       0.63488   0.28465   0.75461   0.07853
C          C       0.67952   0.30548   0.79657  -0.18624
C          C       0.70428   0.34903   0.81672   0.07995
C          C       0.68335   0.37162   0.79188  -0.18524
C          C       0.75121   0.37079   0.86205   0.05452
C          C       0.60918   0.23883   0.73552   0.05802
C          C       0.77126   0.35176   0.95971  -0.12918
C          C       0.81561   0.37231  -0.00223  -0.15536
C          C       0.84185   0.41258   0.93723   0.20398
C          C       0.82188   0.43243   0.84489  -0.17337
C          C       0.77760   0.41175   0.80758  -0.12043
C          C       0.56855   0.21576   0.78947  -0.12915
C          C       0.54475   0.17250   0.77642  -0.15306
C          C       0.56032   0.15047   0.70713   0.19762
C          C       0.60105   0.17351   0.65270  -0.16694
C          C       0.62482   0.21677   0.66686  -0.12510
C          C       0.54126   0.08403   0.61696   0.09251
C          C       0.51643   0.03875   0.62804   0.00009
C          C       0.47897   0.01880   0.70522  -0.21690
C          C       0.53072   0.01429   0.56727   0.20958
C          C       0.06093   0.44729   0.53451   0.02076
C          C       0.02134   0.40544   0.47573  -0.15865
C          C       0.03278   0.37425   0.90609  -0.37151
C          C       0.44694   0.90617   0.68145   0.09267
C          C       0.47037   0.95131   0.66310  -0.00650
C          C       0.50816   0.97134   0.58756  -0.21041
C          C       0.45561   0.97573   0.72037   0.19887
C          C       0.38263   0.95764   0.71500   0.02735
C          C       0.38290   0.99731   0.75013  -0.15702
C          C       0.33965   0.99313   0.68518  -0.37431
C          C       0.91075   0.45901   0.87747   0.08533
C          C       0.95726   0.48061   0.90668  -0.01023
C          C       0.97959   0.46459   0.00987  -0.21011
C          C       0.98103   0.51817   0.82021   0.20354
C          C       0.94542   0.55589   0.81210   0.01956
C          C       0.98197   0.59961   0.86687  -0.15296
C          C       0.96613   0.62476   0.94075  -0.36861
C          C       0.55762   0.60937   0.62384   0.02349
C          C       0.60169   0.61603   0.69043  -0.16013
C          C       0.63390   0.66217   0.73348  -0.36940
C          C       0.43427   0.38269   0.74155   0.02166
C          C       0.38792   0.36955   0.67788  -0.15460
C          C       0.36443   0.32767   0.58362  -0.37074
C          C       0.61447   0.04674   0.06469   0.02684
C          C       0.62098   0.01030   0.04590  -0.15777
C          C       0.65430   0.00816   0.59035  -0.37192
C          C       0.35981   0.54606   0.63664  -0.16045
N          N       0.11994   0.57571   0.33513  -0.29785
N          N       0.42357   0.53772   0.20359  -0.27333
N          N       0.56708   0.45758   0.12585  -0.29489
N          N       0.54339   0.11339   0.19949  -0.30073
N          N       0.47165   0.89002   0.15327  -0.28553
N          N       0.89192   0.43671   0.47570  -0.29429
N          N       0.11441   0.57118   0.84096  -0.29797
N          N       0.41653   0.53090   0.70708  -0.27666
N          N       0.56149   0.45115   0.63665  -0.29578
N          N       0.53449   0.10686   0.70634  -0.30137
N          N       0.46311   0.88392   0.65620  -0.28349
N          N       0.88642   0.43086   0.97713  -0.29772
O          O       0.04519   0.46795   0.12461  -0.25159
O          O       0.42945   0.96212   0.29373  -0.24810
O          O       0.96584   0.53979   0.21795  -0.24439
O          O       0.56642   0.03439   0.48347  -0.25021
O          O       0.54101   0.58118   0.03079  -0.25519
O          O       0.46186   0.42700   0.34388  -0.24855
O          O       0.05086   0.47264   0.62422  -0.25325
O          O       0.41906   0.95582   0.80017  -0.25356
O          O       0.95975   0.53481   0.71832  -0.24661
O          O       0.57513   0.04064   0.96901  -0.25550
O          O       0.53045   0.57165   0.52381  -0.25627
O          O       0.45534   0.41918   0.85082  -0.24852

