data_crystal

_audit_creation_method 'AiiDA-DDEC plugin'

_cell_length_a        45.24334
_cell_length_b        25.62283
_cell_length_c         8.00466

_cell_angle_alpha     70.83179
_cell_angle_beta     101.57499
_cell_angle_gamma     92.35030

_symmetry_space_group_name_Hall 'P 1'
_symmetry_space_group_name_H-M  'P 1'

loop_
_symmetry_equiv_pos_as_xyz
 'x,y,z'

loop_
_atom_site_label
_atom_site_type_symbol
_atom_site_fract_x
_atom_site_fract_y
_atom_site_fract_z
_atom_site_charge
H          H       0.08392   0.83439   0.31520   0.10802
H          H       0.11659   0.75336   0.35279   0.13042
H          H       0.17461   0.86058   0.52879   0.10878
H          H       0.14278   0.93997   0.49625   0.10033
H          H       0.31668   0.39968   0.45229   0.11049
H          H       0.37203   0.39174   0.46542   0.11356
H          H       0.31551   0.55248   0.01475   0.08292
H          H       0.25615   0.65119   0.02429   0.11370
H          H       0.23159   0.73945  -0.00015   0.11270
H          H       0.18773   0.56565   0.30848   0.07341
H          H       0.17407   0.45935   0.44230   0.10907
H          H       0.14193   0.38046   0.40488   0.11784
H          H       0.23263   0.34171   0.38501   0.08904
H          H       0.18912   0.78737   0.02247   0.06192
H          H       0.41709   0.43062   0.37577   0.06256
H          H       0.13919   0.28131   0.45259   0.06783
H          H       0.14219   0.03981   0.37324   0.10142
H          H       0.17057   0.12325   0.39742   0.12384
H          H       0.10497   0.22435   0.45520   0.10981
H          H       0.07763   0.14110   0.43352   0.10461
H          H       0.54410   0.38740   0.16130   0.10233
H          H       0.59839   0.38241   0.15196   0.12404
H          H       0.60346   0.55834   0.03684   0.10180
H          H       0.54969   0.56310   0.05156   0.10429
H          H       0.50232   0.55771   0.39911   0.10673
H          H       0.44765   0.56076   0.41106   0.13143
H          H       0.45911   0.40759   0.35623   0.10780
H          H       0.51260   0.40361   0.33824   0.10371
H          H       0.12990   0.99082   0.16451   0.10164
H          H       0.05289   0.10830   0.19378   0.10369
H          H       0.99804   0.10619   0.15298   0.10504
H          H       0.00044   0.86190   0.48845   0.10389
H          H       0.05459   0.86694   0.01766   0.10621
H          H       0.92276   0.98054   0.01741   0.10379
H          H       0.91151   0.93125   0.30908   0.09828
H          H       0.88332   0.84817   0.28069   0.12365
H          H       0.94959   0.74555   0.22681   0.11029
H          H       0.97691   0.82897   0.24637   0.10536
H          H       0.73613   0.57137   0.27136   0.11089
H          H       0.68098   0.57708   0.27201   0.11182
H          H       0.73830   0.41108   0.18355   0.08176
H          H       0.79746   0.31936   0.16740   0.11062
H          H       0.82230   0.23210   0.18695   0.11361
H          H       0.86550   0.40733   0.37663   0.07241
H          H       0.87903   0.51126   0.25411   0.10907
H          H       0.91076   0.59079   0.29249   0.11797
H          H       0.82061   0.62749   0.30845   0.08596
H          H       0.86456   0.18537   0.16114   0.06069
H          H       0.63699   0.53788   0.37553   0.05882
H          H       0.91243   0.69082   0.24180   0.06888
H          H       0.96929   0.13745   0.35344   0.10829
H          H       0.93778   0.21895   0.32302   0.13335
H          H       0.88035   0.11133   0.16020   0.10759
H          H       0.91166   0.03137   0.19331   0.10032
H          H       0.19219   0.51026   0.14425   0.10632
H          H       0.26788   0.40345   0.21588   0.10807
H          H       0.28251   0.57057   0.21232   0.10708
H          H       0.86071   0.46221   0.04638   0.10378
H          H       0.78503   0.56568  -0.00046   0.10790
H          H       0.77169   0.39954   0.48101   0.10740
H          H       0.08533   0.83232   0.81913   0.10949
H          H       0.11736   0.75148   0.84889   0.12982
H          H       0.17391   0.86180   0.03111   0.10805
H          H       0.14166   0.94131   0.99316   0.10095
H          H       0.31756   0.39994   0.94911   0.11210
H          H       0.37313   0.39138   0.96273   0.11330
H          H       0.31696   0.55303   0.51365   0.08292
H          H       0.25728   0.64888   0.52518   0.10979
H          H       0.23278   0.73758   0.49977   0.11302
H          H       0.18839   0.56389   0.80532   0.07280
H          H       0.17507   0.45851   0.93452   0.10937
H          H       0.14489   0.37887   0.88824   0.11677
H          H       0.23471   0.34019   0.86712   0.08715
H          H       0.19170   0.78591   0.52954   0.06087
H          H       0.41876   0.43275   0.87742   0.06416
H          H       0.14477   0.27654   0.94243   0.06996
H          H       0.14236   0.03943   0.87970   0.09854
H          H       0.17029   0.12397   0.90126   0.12228
H          H       0.10385   0.22624   0.96738   0.10948
H          H       0.07567   0.14359   0.94366   0.10644
H          H       0.54483   0.38867   0.65639   0.10237
H          H       0.59930   0.38340   0.64759   0.12427
H          H       0.60487   0.55871   0.53777   0.10096
H          H       0.55113   0.56394   0.55443   0.10440
H          H       0.50047   0.55450   0.88759   0.10767
H          H       0.44622   0.55865   0.90525   0.12876
H          H       0.45919   0.40519   0.84119   0.10644
H          H       0.51300   0.40199   0.82946   0.10073
H          H       0.13082   0.98943   0.66588   0.10124
H          H       0.05399   0.10719   0.69292   0.10476
H          H       0.99886   0.10581   0.64826   0.10645
H          H      -0.00038   0.86416   0.98047   0.10394
H          H       0.05529   0.86390   0.52815   0.10593
H          H       0.92366   0.98015   0.51812   0.10157
H          H       0.91116   0.93020   0.80484   0.09962
H          H       0.88348   0.84559   0.78413   0.12486
H          H       0.94916   0.74471   0.71683   0.10965
H          H       0.97709   0.82708   0.74397   0.10611
H          H       0.73553   0.57067   0.77491   0.11158
H          H       0.68036   0.57637   0.77275   0.11188
H          H       0.73925   0.41178   0.68068   0.08390
H          H       0.79952   0.31901   0.67566   0.11058
H          H       0.82450   0.23145   0.69430   0.11388
H          H       0.86599   0.40744   0.88923   0.07360
H          H       0.87786   0.51318   0.76757   0.10868
H          H       0.90860   0.59358   0.80383   0.11761
H          H       0.81941   0.62915   0.81931   0.08739
H          H       0.86521   0.18502   0.65487   0.06275
H          H       0.63632   0.53788   0.87826   0.05969
H          H       0.90904   0.69569   0.73904   0.06980
H          H       0.96835   0.13701   0.85964   0.10928
H          H       0.93692   0.21863   0.82896   0.13010
H          H       0.88133   0.11178   0.65437   0.10832
H          H       0.91248   0.03153   0.68523   0.09966
H          H       0.19330   0.50878   0.64505   0.10430
H          H       0.26869   0.40302   0.70263   0.10687
H          H       0.28360   0.56899   0.71020   0.10730
H          H       0.86164   0.46134   0.54864   0.10739
H          H       0.78572   0.56568   0.49087   0.10770
H          H       0.77091   0.39916   0.99472   0.10788
C          C       0.10979   0.89378   0.14610   0.06759
C          C       0.10309   0.84007   0.24857  -0.12566
C          C       0.12130   0.79487   0.27139  -0.13953
C          C       0.14669   0.80119   0.19048   0.18693
C          C       0.15423   0.85515   0.09369  -0.17017
C          C       0.13609   0.90019   0.07296  -0.12494
C          C       0.21645   0.50310   0.16846  -0.19283
C          C       0.22764   0.45119   0.18314   0.07998
C          C       0.25897   0.44282   0.21122  -0.18502
C          C       0.27886   0.48593   0.21742   0.07957
C          C       0.26711   0.53748   0.20214  -0.18747
C          C       0.23593   0.54650   0.18008   0.08115
C          C       0.22373   0.60035   0.16770   0.02147
C          C       0.20722   0.40663   0.16004   0.01680
C          C       0.31146   0.47748   0.23260   0.01474
C          C       0.32781   0.43099   0.35834  -0.09517
C          C       0.35862   0.42661   0.36591  -0.16753
C          C       0.37264   0.46799   0.24532   0.19082
C          C       0.32765   0.51648   0.11768   0.04312
C          C       0.23648   0.65064   0.08394  -0.09853
C          C       0.22271   0.69988   0.06929  -0.16617
C          C       0.19665   0.69854   0.14076   0.19162
C          C       0.19781   0.60376   0.23700   0.04716
C          C       0.18127   0.41655   0.02374  -0.10009
C          C       0.16445   0.37214  -0.00213  -0.17516
C          C       0.17329   0.31821   0.11275   0.18717
C          C       0.21350   0.35124   0.27145   0.03747
C          C       0.18188   0.75059   0.12116   0.04002
C          C       0.40505   0.46206   0.25337   0.04418
C          C       0.15655   0.27060   0.08190   0.04507
C          C       0.10680   0.08540   0.15670   0.06378
C          C       0.13416   0.08055   0.28126  -0.13293
C          C       0.15009   0.12692   0.29594  -0.14326
C          C       0.13976   0.18023   0.18161   0.20243
C          C       0.11260   0.18541   0.05483  -0.16869
C          C       0.09652   0.13889   0.04308  -0.12292
C          C       0.51063   0.47899   0.11356   0.05857
C          C       0.54265   0.47586   0.10399   0.05952
C          C       0.55706   0.42495   0.13424  -0.12979
C          C       0.58738   0.42183   0.12842  -0.14320
C          C       0.60452   0.46994   0.08764   0.20240
C          C       0.59033   0.52099   0.05935  -0.18080
C          C       0.56003   0.52368   0.06764  -0.12061
C          C       0.49160   0.52310   0.99300  -0.13067
C          C       0.46126   0.52541   0.00076  -0.14251
C          C       0.44881   0.48427   0.13115   0.18884
C          C       0.46781   0.43986   0.25218  -0.17211
C          C       0.49800   0.43739   0.24194  -0.12965
C          C       0.08980   0.03606   0.14338   0.02819
C          C       0.05798   0.03356   0.13041   0.03126
C          C       0.04245   0.98668   0.10035   0.00711
C          C       0.05901   0.94131   0.09312   0.03088
C          C       0.09111   0.94202   0.12663   0.02554
C          C       0.10542   0.98977   0.14586  -0.18533
C          C       0.04092   0.07536   0.15388  -0.13392
C          C       0.01019   0.07405   0.13146  -0.13336
C          C       0.99361   0.03056   0.08450   0.03406
C          C       0.01021   0.98507   0.07836   0.00467
C          C       0.99468   0.93814   0.04876   0.03315
C          C       0.01167   0.89670   0.02255  -0.13488
C          C       0.04240   0.89820   0.04363  -0.13268
C          C       0.96151   0.02975   0.05261   0.02304
C          C       0.94722   0.98181   0.03494  -0.18664
C          C       0.96291   0.93556   0.03751   0.02625
C          C       0.94618   0.88584   0.02612   0.06686
C          C       0.91947   0.89041   0.40042  -0.12936
C          C       0.90364   0.84416   0.38361  -0.14330
C          C       0.91409   0.78998   0.00509   0.20092
C          C       0.94087   0.78578   0.13411  -0.16627
C          C       0.95653   0.83282   0.14393  -0.12168
C          C       0.83646   0.46839   0.02777  -0.19002
C          C       0.82514   0.51954   0.01872   0.07746
C          C       0.79388   0.52695  -0.00153  -0.18609
C          C       0.77487   0.48337   0.48462   0.07688
C          C       0.78689   0.43260   0.49415  -0.18746
C          C       0.81727   0.42459   0.01760   0.08371
C          C       0.82976   0.37140   0.02639   0.01656
C          C       0.84578   0.56399   0.03869   0.01570
C          C       0.74231   0.49039   0.47493   0.01967
C          C       0.72546   0.53803   0.36154  -0.09464
C          C       0.69482   0.54120   0.36176  -0.17234
C          C       0.68151   0.49718   0.47745   0.18838
C          C       0.72590   0.44838   0.09046   0.04536
C          C       0.81715   0.32069   0.10729  -0.09434
C          C       0.83118   0.27194   0.11975  -0.16889
C          C       0.85742   0.27420   0.04889   0.19243
C          C       0.85609   0.36869   0.44987   0.05041
C          C       0.87271   0.55347   0.16771  -0.09860
C          C       0.89028   0.59752   0.18912  -0.17613
C          C       0.88104   0.65159   0.07725   0.18751
C          C       0.83993   0.61871   0.42093   0.03953
C          C       0.87213   0.22242   0.06521   0.04144
C          C       0.64925   0.50115   0.47717   0.03695
C          C       0.89861   0.69852   0.10593   0.04011
C          C       0.94301   0.07811   0.03422   0.06964
C          C       0.95065   0.13198   0.42437  -0.12575
C          C       0.93305   0.17759   0.40555  -0.14442
C          C       0.90706   0.17155   0.99494   0.18588
C          C       0.89948   0.11770   0.09292  -0.16988
C          C       0.91717   0.07228   0.11151  -0.12591
C          C       0.11082   0.89210   0.64821   0.07000
C          C       0.10422   0.83826   0.75013  -0.12665
C          C       0.12217   0.79312   0.76931  -0.13930
C          C       0.14745   0.79956   0.68730   0.18768
C          C       0.15504   0.85369   0.59230  -0.17070
C          C       0.13704   0.89869   0.57402  -0.12613
C          C       0.21752   0.50179   0.66611  -0.19197
C          C       0.22857   0.45029   0.67624   0.08062
C          C       0.25987   0.44212   0.70082  -0.18752
C          C       0.27982   0.48495   0.71030   0.07918
C          C       0.26813   0.53615   0.69849  -0.18766
C          C       0.23702   0.54499   0.67867   0.08350
C          C       0.22479   0.59856   0.66780   0.01782
C          C       0.20774   0.40617   0.65451   0.01475
C          C       0.31254   0.47696   0.72738   0.01750
C          C       0.32886   0.43067   0.85443  -0.09774
C          C       0.35974   0.42636   0.86344  -0.16477
C          C       0.37381   0.46796   0.74378   0.19060
C          C       0.32888   0.51653   0.61515   0.04422
C          C       0.23760   0.64874   0.58425  -0.09464
C          C       0.22388   0.69804   0.56934  -0.16690
C          C       0.19770   0.69674   0.63988   0.19185
C          C       0.19868   0.60196   0.73525   0.04913
C          C       0.18054   0.41705   0.52750  -0.09814
C          C       0.16272   0.37322   0.50615  -0.17693
C          C       0.17209   0.31883   0.61451   0.18568
C          C       0.21446   0.35040   0.76075   0.04252
C          C       0.18326   0.74896   0.62163   0.04188
C          C       0.40628   0.46251   0.75238   0.04282
C          C       0.15428   0.27216   0.58541   0.04044
C          C       0.10764   0.08406   0.65711   0.06810
C          C       0.13443   0.07991   0.78528  -0.13111
C          C       0.15004   0.12677   0.79870  -0.13798
C          C       0.13988   0.17972   0.68030   0.19862
C          C       0.11335   0.18408   0.54926  -0.16398
C          C       0.09771   0.13719   0.53802  -0.12051
C          C       0.51179   0.47978   0.61449   0.06038
C          C       0.54380   0.47683   0.60475   0.06032
C          C       0.55797   0.42599   0.63154  -0.13062
C          C       0.58827   0.42264   0.62578  -0.14265
C          C       0.60553   0.47055   0.58699   0.20138
C          C       0.59155   0.52161   0.56034  -0.17943
C          C       0.56132   0.52449   0.56956  -0.12403
C          C       0.49304   0.52502   0.49900  -0.12770
C          C       0.46255   0.52689   0.50388  -0.14519
C          C       0.44972   0.48424   0.62762   0.18848
C          C       0.46842   0.43879   0.74379  -0.16885
C          C       0.49875   0.43674   0.73619  -0.12796
C          C       0.09075   0.03450   0.64470   0.02517
C          C       0.05891   0.03231   0.63033   0.03308
C          C       0.04336   0.98528   0.60166   0.00336
C          C       0.05995   0.93951   0.59693   0.03396
C          C       0.09208   0.94018   0.62991   0.02500
C          C       0.10636   0.98816   0.64769  -0.18404
C          C       0.04190   0.07443   0.65244  -0.13264
C          C       0.01115   0.07358   0.62800  -0.13300
C          C       0.99455   0.03003   0.58181   0.03329
C          C       0.01110   0.98404   0.57847   0.00666
C          C       0.99548   0.93690   0.55122   0.03318
C          C       0.01247   0.89487   0.52814  -0.13391
C          C       0.04323   0.89605   0.55026  -0.13364
C          C       0.96244   0.02965   0.54903   0.02489
C          C       0.94811   0.98141   0.53476  -0.18539
C          C       0.96367   0.93478   0.53914   0.02632
C          C       0.94661   0.88546   0.52669   0.06366
C          C       0.91919   0.88979   0.89953  -0.13112
C          C       0.90368   0.84282   0.88696  -0.14268
C          C       0.91391   0.79084   0.49800   0.19976
C          C       0.94069   0.78554   0.62773  -0.16935
C          C       0.95666   0.83196   0.64137  -0.12095
C          C       0.83735   0.46773   0.52715  -0.19066
C          C       0.82588   0.51901   0.51600   0.07863
C          C       0.79457   0.52667   0.49206  -0.18501
C          C       0.77425   0.48343   0.99237   0.07966
C          C       0.78620   0.43255   0.00262  -0.18940
C          C       0.81807   0.42425   0.51394   0.08288
C          C       0.83057   0.37094   0.52382   0.01528
C          C       0.84617   0.56387   0.53700   0.01686
C          C       0.74166   0.49023   0.98149   0.01972
C          C       0.72481   0.53753   0.86560  -0.09653
C          C       0.69411   0.54060   0.86410  -0.17106
C          C       0.68068   0.49673   0.97976   0.18851
C          C       0.72676   0.44885   0.58659   0.04380
C          C       0.81864   0.32016   0.61092  -0.09241
C          C       0.83267   0.27148   0.62250  -0.16823
C          C       0.85826   0.27395   0.54558   0.19261
C          C       0.85586   0.36896   0.95763   0.04986
C          C       0.87204   0.55470   0.67367  -0.10081
C          C       0.88907   0.59945   0.69426  -0.17275
C          C       0.88041   0.65281   0.57392   0.18637
C          C       0.83924   0.61939   0.92864   0.03936
C          C       0.87301   0.22229   0.56110   0.03932
C          C       0.64839   0.50078   0.97903   0.03437
C          C       0.89725   0.70078   0.60018   0.04338
C          C       0.94399   0.07838   0.52840   0.06894
C          C       0.94963   0.13165   0.92983  -0.12522
C          C       0.93202   0.17727   0.91047  -0.14015
C          C       0.90818   0.17184   0.49081   0.18698
C          C       0.90058   0.11799   0.58819  -0.16867
C          C       0.91813   0.07257   0.60536  -0.12483
N          N       0.35701   0.51238   0.12030  -0.26151
N          N       0.18455   0.65043   0.22647  -0.26290
N          N       0.19729   0.30826   0.25124  -0.26774
N          N       0.16176   0.75198   0.21346  -0.26825
N          N       0.15645   0.22473   0.21134  -0.25383
N          N       0.41797   0.49126   0.12455  -0.26819
N          N       0.69669   0.45095   0.09300  -0.25457
N          N       0.86970   0.32261   0.45816  -0.26464
N          N       0.85635   0.66196   0.43605  -0.26697
N          N       0.89715   0.74535   0.97871  -0.25721
N          N       0.63498   0.46330   0.08705  -0.24081
N          N       0.89358   0.22128   0.47112  -0.26975
N          N       0.35833   0.51270   0.61983  -0.26187
N          N       0.18538   0.64866   0.72408  -0.26321
N          N       0.19752   0.30793   0.74369  -0.26793
N          N       0.16229   0.75030   0.70836  -0.27062
N          N       0.15686   0.22421   0.70804  -0.25825
N          N       0.41886   0.49070   0.62069  -0.26602
N          N       0.69763   0.45155   0.59085  -0.25442
N          N       0.86944   0.32278   0.96628  -0.26284
N          N       0.85608   0.66205   0.94489  -0.26730
N          N       0.89729   0.74619   0.46861  -0.25160
N          N       0.63595   0.46379   0.58635  -0.23988
N          N       0.89246   0.22112   0.97398  -0.26903

