data_crystal

_audit_creation_method 'AiiDA-DDEC plugin'

_cell_length_a        45.28085
_cell_length_b        25.48871
_cell_length_c         8.03158

_cell_angle_alpha     63.44265
_cell_angle_beta     98.36912
_cell_angle_gamma     90.57500

_symmetry_space_group_name_Hall 'P 1'
_symmetry_space_group_name_H-M  'P 1'

loop_
_symmetry_equiv_pos_as_xyz
 'x,y,z'

loop_
_atom_site_label
_atom_site_type_symbol
_atom_site_fract_x
_atom_site_fract_y
_atom_site_fract_z
_atom_site_charge
H          H       0.07902   0.81737   0.33581   0.10558
H          H       0.10695   0.72975   0.36397   0.11864
H          H       0.16869   0.84307   0.50329   0.10839
H          H       0.14007   0.92886   0.47415   0.09646
H          H       0.30461   0.39071   0.12705   0.11182
H          H       0.35887   0.38296   0.11158   0.10475
H          H       0.37147   0.54080   0.17551   0.11858
H          H       0.31676   0.54805   0.19187   0.11174
H          H       0.26192   0.61314   0.21055   0.11413
H          H       0.23817   0.69976   0.21899   0.10453
H          H       0.15129   0.63646   0.14723   0.11237
H          H       0.17539   0.54957   0.13753   0.11219
H          H       0.16902   0.44115   0.11089   0.11138
H          H       0.13569   0.36584   0.08266   0.10071
H          H       0.21235   0.26391   0.10333   0.11463
H          H       0.24568   0.34076   0.12751   0.11250
H          H       0.19505   0.75806   0.19042   0.06456
H          H       0.40850   0.41731   0.12660   0.06587
H          H       0.12821   0.27540   0.06322   0.05904
H          H       0.14089   0.02382   0.33140   0.09946
H          H       0.17314   0.10438   0.32350   0.12099
H          H       0.11039   0.22831   0.36531   0.10344
H          H       0.07950   0.14727   0.37006   0.10737
H          H       0.54356   0.39282   0.12330   0.10391
H          H       0.59782   0.38945   0.10118   0.11711
H          H       0.60080   0.57112   0.98104   0.10667
H          H       0.54677   0.57540  -0.00330   0.10475
H          H       0.50004   0.57097   0.34023   0.10589
H          H       0.44601   0.57467   0.36251   0.12119
H          H       0.45630   0.41424   0.34051   0.10777
H          H       0.51046   0.40728   0.32693   0.10088
H          H       0.12789   0.97984   0.12896   0.10134
H          H       0.05508   0.11124   0.14289   0.10222
H          H       0.00066   0.11430   0.12892   0.10462
H          H       0.99584   0.86325   0.03124   0.10242
H          H       0.05027   0.86013   0.04697   0.10648
H          H       0.92322   0.99162   0.06398   0.10161
H          H       0.91040   0.94267   0.36482   0.09878
H          H       0.87967   0.86023   0.37743   0.12075
H          H       0.94218   0.74174   0.32223   0.10307
H          H       0.97286   0.82320   0.31705   0.10660
H          H       0.74750   0.57114   0.11822   0.11247
H          H       0.69263   0.57707   0.12551   0.10493
H          H       0.68298   0.42017   0.05314   0.11410
H          H       0.73837   0.41350   0.05385   0.11107
H          H       0.79094   0.34811   0.05433   0.11339
H          H       0.81368   0.26286   0.03124   0.10412
H          H       0.90004   0.33279   0.52856   0.11211
H          H       0.87606   0.42354   0.03768   0.11175
H          H       0.88402   0.52509   0.11006   0.11252
H          H       0.91744   0.60218   0.12803   0.10098
H          H       0.84092   0.70373   0.11014   0.11451
H          H       0.80767   0.62547   0.09739   0.11263
H          H       0.85592   0.21049   0.01658   0.06351
H          H       0.64516   0.53269   0.14952   0.06701
H          H       0.92465   0.69430   0.13889   0.05721
H          H       0.97093   0.15184   0.33924   0.10623
H          H       0.94244   0.23915   0.30916   0.11964
H          H       0.88503   0.12976   0.18746   0.10634
H          H       0.91339   0.04277   0.22308   0.09830
H          H       0.08138   0.81493   0.83599   0.10801
H          H       0.10967   0.72845   0.85966   0.11887
H          H       0.16642   0.84197   0.00606   0.10850
H          H       0.13843   0.92890   0.97416   0.09614
H          H       0.30534   0.38394   0.64402   0.11298
H          H       0.36000   0.37426   0.63711   0.10528
H          H       0.37184   0.53853   0.66023   0.11560
H          H       0.31702   0.54755   0.66942   0.11267
H          H       0.26420   0.60897   0.71630   0.11355
H          H       0.24145   0.69632   0.72611   0.10533
H          H       0.15369   0.63849   0.63776   0.11226
H          H       0.17679   0.55091   0.62821   0.11237
H          H       0.16900   0.43974   0.61116   0.11149
H          H       0.13553   0.36453   0.58004   0.10134
H          H       0.21220   0.26262   0.60150   0.11509
H          H       0.24559   0.33876   0.62891   0.11246
H          H       0.19806   0.75761   0.69093   0.06477
H          H       0.40949   0.40991   0.64269   0.06566
H          H       0.12821   0.27362   0.56411   0.05726
H          H       0.14237   0.02262   0.82906   0.10016
H          H       0.17423   0.10370   0.81731   0.12163
H          H       0.11091   0.23000   0.86444   0.10246
H          H       0.07963   0.14967   0.86461   0.10799
H          H       0.54502   0.39605   0.60090   0.10221
H          H       0.59909   0.39652   0.57050   0.11717
H          H       0.60133   0.57253   0.51161   0.10750
H          H       0.54739   0.57286   0.53370   0.10315
H          H       0.49973   0.56997   0.81750   0.10563
H          H       0.44559   0.57732   0.83300   0.12080
H          H       0.45806   0.40424   0.84097   0.10842
H          H       0.51216   0.40081   0.82050   0.10537
H          H       0.12898   0.97815   0.63305   0.10094
H          H       0.05543   0.10897   0.64566   0.10234
H          H       0.00117   0.11115   0.63190   0.10579
H          H       0.99754   0.85906   0.54007   0.10177
H          H       0.05160   0.85707   0.55135   0.10573
H          H       0.92421   0.98834   0.56293   0.10119
H          H       0.90904   0.94745   0.86358   0.09998
H          H       0.87780   0.86572   0.87317   0.12030
H          H       0.94434   0.73793   0.82869   0.10347
H          H       0.97469   0.82001   0.82015   0.10711
H          H       0.74942   0.57320   0.60813   0.11312
H          H       0.69501   0.58068   0.61991   0.10556
H          H       0.68306   0.42284   0.55551   0.11400
H          H       0.73823   0.41386   0.55361   0.11158
H          H       0.79107   0.34677   0.54307   0.11374
H          H       0.81375   0.26108   0.52345   0.10394
H          H       0.89911   0.33830   0.01280   0.11248
H          H       0.87704   0.41817   0.55046   0.11188
H          H       0.88555   0.52222   0.60714   0.11029
H          H       0.91906   0.59789   0.63126   0.10082
H          H       0.84313   0.69810   0.62757   0.11482
H          H       0.80950   0.62104   0.60706   0.11350
H          H       0.85651   0.20697   0.51765   0.06353
H          H       0.64700   0.53656   0.65051   0.06667
H          H       0.92663   0.68945   0.64685   0.05935
H          H       0.97080   0.15426   0.84516   0.10727
H          H       0.94255   0.24191   0.81278   0.11903
H          H       0.88639   0.12582   0.69281   0.10731
H          H       0.91488   0.03926   0.72471   0.09600
C          C       0.10595   0.88032   0.14800   0.06379
C          C       0.09784   0.82300   0.26057  -0.11908
C          C       0.11350   0.77376   0.27820  -0.15347
C          C       0.13866   0.77944   0.18873   0.19984
C          C       0.14781   0.83638   0.08306  -0.17560
C          C       0.13172   0.88547   0.06393  -0.12417
C          C       0.22867   0.43981   0.14067   0.37180
C          C       0.27488   0.47509   0.16033   0.37486
C          C       0.23385   0.52551   0.16378   0.36956
C          C       0.22008   0.57634   0.17222   0.00875
C          C       0.20928   0.39527   0.12195   0.00793
C          C       0.30729   0.47010   0.15816   0.00512
C          C       0.31947   0.42304   0.13886  -0.10043
C          C       0.34978   0.41892   0.13079  -0.13245
C          C       0.36863   0.46207   0.14019   0.05757
C          C       0.35651   0.50859   0.16342  -0.11268
C          C       0.32627   0.51254   0.17259  -0.09848
C          C       0.23777   0.61885   0.19558  -0.10236
C          C       0.22440   0.66704   0.19958  -0.13429
C          C       0.19312   0.67368   0.18285   0.06544
C          C       0.17544   0.63069   0.16094  -0.10469
C          C       0.18873   0.58282   0.15585  -0.09359
C          C       0.17816   0.40235   0.10815  -0.09593
C          C       0.15980   0.36018   0.09278  -0.13812
C          C       0.17203   0.30973   0.09255   0.06651
C          C       0.20325   0.30296   0.10511  -0.09876
C          C       0.22158   0.34525   0.11890  -0.10108
C          C       0.17975   0.72431   0.18962   0.06878
C          C       0.40005   0.45859   0.12074   0.06867
C          C       0.15242   0.26498   0.08335   0.06514
C          C       0.10752   0.08059   0.10139   0.06580
C          C       0.13448   0.06890   0.22718  -0.12832
C          C       0.15252   0.11354   0.22447  -0.15100
C          C       0.14382   0.17258   0.09797   0.20501
C          C       0.11711   0.18334   0.46992  -0.18470
C          C       0.09965   0.13767   0.47332  -0.11973
C          C       0.50898   0.48770   0.07003   0.05239
C          C       0.54117   0.48440   0.06207   0.06249
C          C       0.55609   0.43186   0.09347  -0.13332
C          C       0.58632   0.42955   0.08149  -0.15178
C          C       0.60309   0.47917   0.04601   0.20627
C          C       0.58830   0.53195   0.01381  -0.17204
C          C       0.55787   0.53443   0.02036  -0.12408
C          C       0.49099   0.53472   0.45168  -0.12263
C          C       0.46073   0.53690   0.46248  -0.15516
C          C       0.44715   0.49550   0.08444   0.20002
C          C       0.46573   0.44721   0.22272  -0.18156
C          C       0.49613   0.44358   0.21500  -0.12666
C          C       0.08932   0.03169   0.10550   0.02432
C          C       0.05788   0.03283   0.10412   0.03167
C          C       0.04145   0.98534   0.09750   0.00630
C          C       0.05675   0.93600   0.10013   0.03256
C          C       0.08857   0.93276   0.12223   0.02796
C          C       0.10369   0.98129   0.11937  -0.18435
C          C       0.04219   0.07835   0.11928  -0.13598
C          C       0.01183   0.08006   0.11125  -0.13152
C          C       0.99427   0.03644   0.08651   0.03168
C          C       0.00959   0.98717   0.08881   0.00631
C          C       0.99313   0.93993   0.08023   0.03281
C          C       0.00874   0.89520   0.06038  -0.13612
C          C       0.03912   0.89337   0.06960  -0.13262
C          C       0.96247   0.03908   0.06830   0.02766
C          C       0.94740   0.99043   0.07182  -0.18534
C          C       0.96175   0.94070   0.08097   0.02303
C          C       0.94380   0.89150   0.08549   0.06582
C          C       0.91784   0.89795   0.46803  -0.12660
C          C       0.90050   0.85209   0.47397  -0.14876
C          C       0.90827   0.79813   0.09292   0.20549
C          C       0.93533   0.78672   0.21810  -0.18154
C          C       0.95258   0.83262   0.21482  -0.11905
C          C       0.82433   0.52623   0.08535   0.37634
C          C       0.77846   0.48862   0.08128   0.37812
C          C       0.81903   0.44046   0.06322   0.36904
C          C       0.83222   0.39061   0.04744   0.00612
C          C       0.84390   0.57104   0.10066   0.00487
C          C       0.74610   0.49218   0.08512   0.00150
C          C       0.73309   0.53862   0.10359  -0.10014
C          C       0.70254   0.54177   0.10654  -0.13033
C          C       0.68418   0.49934   0.08700   0.06067
C          C       0.69731   0.45286   0.06773  -0.11284
C          C       0.72787   0.44910   0.06827  -0.09759
C          C       0.81455   0.34524   0.04540  -0.09865
C          C       0.82737   0.29791   0.03401  -0.13787
C          C       0.85795   0.29528   0.02111   0.06607
C          C       0.87554   0.34101   0.02275  -0.10195
C          C       0.86286   0.38795   0.03561  -0.09116
C          C       0.87501   0.56423   0.11145  -0.09626
C          C       0.89335   0.60728   0.12063  -0.13836
C          C       0.88107   0.65836   0.11664   0.06684
C          C       0.84996   0.66444   0.10971  -0.10193
C          C       0.83169   0.62128   0.10252  -0.09899
C          C       0.87092   0.24560   0.00752   0.06939
C          C       0.65226   0.50349   0.09305   0.06727
C          C       0.90038   0.70444   0.11727   0.06782
C          C       0.94495   0.09142   0.04187   0.06467
C          C       0.95283   0.14598   0.42012  -0.12013
C          C       0.93675   0.19505   0.40092  -0.15340
C          C       0.91154   0.19241   0.99476   0.19506
C          C       0.90311   0.13537   0.10652  -0.17382
C          C       0.91948   0.08621   0.12858  -0.12589
C          C       0.10758   0.87915   0.64584   0.06421
C          C       0.09993   0.82140   0.75814  -0.12062
C          C       0.11594   0.77271   0.77409  -0.15321
C          C       0.14116   0.77928   0.68427   0.19736
C          C       0.14998   0.83661   0.58010  -0.17597
C          C       0.13346   0.88515   0.56208  -0.12484
C          C       0.22894   0.43797   0.63944   0.37278
C          C       0.27543   0.47227   0.65632   0.37694
C          C       0.23498   0.52378   0.66104   0.36937
C          C       0.22185   0.57487   0.67092   0.00566
C          C       0.20923   0.39373   0.62154   0.00544
C          C       0.30782   0.46642   0.65561   0.00302
C          C       0.32016   0.41719   0.64890  -0.10035
C          C       0.35062   0.41204   0.64545  -0.13344
C          C       0.36938   0.45621   0.64707   0.05754
C          C       0.35699   0.50521   0.65575  -0.11093
C          C       0.32669   0.51015   0.66069  -0.09378
C          C       0.24009   0.61611   0.69848  -0.10069
C          C       0.22724   0.66480   0.70261  -0.13671
C          C       0.19595   0.67314   0.68181   0.06376
C          C       0.17782   0.63133   0.65585  -0.10335
C          C       0.19055   0.58303   0.65063  -0.09242
C          C       0.17808   0.40106   0.60737  -0.09446
C          C       0.15968   0.35901   0.59109  -0.13800
C          C       0.17194   0.30860   0.59077   0.06513
C          C       0.20314   0.30161   0.60375  -0.10073
C          C       0.22148   0.34366   0.61858  -0.09942
C          C       0.18272   0.72416   0.68787   0.06655
C          C       0.40102   0.45155   0.63403   0.06556
C          C       0.15243   0.26382   0.58139   0.06754
C          C       0.10813   0.07880   0.60370   0.06574
C          C       0.13543   0.06760   0.72604  -0.12802
C          C       0.15334   0.11264   0.72071  -0.15322
C          C       0.14417   0.17156   0.59515   0.20606
C          C       0.11716   0.18485   0.96911  -0.18419
C          C       0.09955   0.13958   0.96996  -0.12188
C          C       0.51009   0.48556   0.57914   0.05565
C          C       0.54231   0.48454   0.56889   0.06259
C          C       0.55742   0.43455   0.58247  -0.13242
C          C       0.58755   0.43445   0.56594  -0.14689
C          C       0.60413   0.48343   0.54484   0.20216
C          C       0.58914   0.53369   0.53138  -0.16967
C          C       0.55875   0.53417   0.54174  -0.12322
C          C       0.49026   0.53603   0.93304  -0.12730
C          C       0.45998   0.54033   0.94083  -0.15706
C          C       0.44821   0.48920   0.59909   0.19940
C          C       0.46713   0.43983   0.72748  -0.17868
C          C       0.49754   0.43823   0.71663  -0.12995
C          C       0.09017   0.02967   0.60818   0.02412
C          C       0.05871   0.03069   0.60544   0.03256
C          C       0.04250   0.98302   0.59828   0.00581
C          C       0.05801   0.93386   0.60066   0.03352
C          C       0.08985   0.93108   0.62189   0.02725
C          C       0.10474   0.97955   0.62143  -0.18585
C          C       0.04282   0.07595   0.62110  -0.13702
C          C       0.01245   0.07735   0.61239  -0.12957
C          C       0.99509   0.03378   0.58590   0.03094
C          C       0.01062   0.98451   0.58942   0.00809
C          C       0.99436   0.93680   0.58309   0.03021
C          C       0.01019   0.89188   0.56555  -0.13480
C          C       0.04053   0.89061   0.57297  -0.13456
C          C       0.96329   0.03627   0.56585   0.02874
C          C       0.94839   0.98728   0.57101  -0.18513
C          C       0.96295   0.93732   0.58315   0.02594
C          C       0.94520   0.88774   0.58928   0.06521
C          C       0.91638   0.90242   0.96443  -0.12973
C          C       0.89879   0.85701   0.96870  -0.15075
C          C       0.91013   0.79348   0.60038   0.20322
C          C       0.93723   0.78275   0.72446  -0.18401
C          C       0.95426   0.82908   0.71944  -0.12051
C          C       0.82569   0.52342   0.58459   0.37054
C          C       0.77939   0.48774   0.57632   0.37807
C          C       0.81959   0.43807   0.56034   0.36851
C          C       0.83270   0.38759   0.54718   0.00758
C          C       0.84546   0.56763   0.60232   0.00848
C          C       0.74713   0.49300   0.58018   0.00234
C          C       0.73478   0.54049   0.59677  -0.10033
C          C       0.70435   0.54467   0.60199  -0.13173
C          C       0.68543   0.50255   0.58529   0.06086
C          C       0.69787   0.45529   0.56725  -0.11309
C          C       0.72831   0.45031   0.56634  -0.09758
C          C       0.81485   0.34303   0.53989  -0.09996
C          C       0.82766   0.29550   0.52933  -0.13704
C          C       0.85844   0.29178   0.52238   0.06568
C          C       0.87622   0.33653   0.53042  -0.10112
C          C       0.86355   0.38359   0.54269  -0.09266
C          C       0.87650   0.56081   0.61146  -0.09514
C          C       0.89501   0.60319   0.62420  -0.13958
C          C       0.88295   0.65356   0.62571   0.06509
C          C       0.85191   0.65956   0.62125  -0.10048
C          C       0.83348   0.61712   0.61004  -0.10024
C          C       0.87152   0.24198   0.50958   0.06989
C          C       0.65358   0.50759   0.59194   0.06755
C          C       0.90238   0.69937   0.62725   0.06450
C          C       0.94569   0.08855   0.53944   0.06459
C          C       0.95239   0.14870   0.92345  -0.12027
C          C       0.93638   0.19802   0.90260  -0.15107
C          C       0.91230   0.18897   0.49672   0.19700
C          C       0.90422   0.13174   0.60979  -0.17458
C          C       0.92058   0.08291   0.62938  -0.12763
N          N       0.21542   0.48561   0.14816  -0.40723
N          N       0.25831   0.43231   0.14790  -0.41001
N          N       0.26378   0.52231   0.17022  -0.41104
N          N       0.15164   0.72860   0.19785  -0.28194
N          N       0.16295   0.21491   0.10643  -0.27103
N          N       0.41676   0.50222   0.09110  -0.27255
N          N       0.83734   0.48162   0.07015  -0.41091
N          N       0.79486   0.53242   0.08773  -0.41550
N          N       0.78955   0.44154   0.07106  -0.41131
N          N       0.88946   0.75497   0.08798  -0.27301
N          N       0.63358   0.47313   0.04027  -0.28797
N          N       0.89848   0.24326   0.98492  -0.28084
N          N       0.21616   0.48416   0.64703  -0.40841
N          N       0.25852   0.42965   0.64595  -0.41255
N          N       0.26480   0.52004   0.66493  -0.41110
N          N       0.15450   0.72881   0.69281  -0.27659
N          N       0.16317   0.21428   0.60139  -0.27104
N          N       0.41779   0.49503   0.60591  -0.27196
N          N       0.83829   0.47859   0.56870  -0.40785
N          N       0.79631   0.53038   0.58660  -0.41216
N          N       0.78998   0.44053   0.56431  -0.41101
N          N       0.89146   0.74992   0.59779  -0.27110
N          N       0.63459   0.47841   0.53587  -0.28611
N          N       0.89915   0.23960   0.48807  -0.28113

