data_crystal

_audit_creation_method 'AiiDA-DDEC plugin'

_cell_length_a        51.66545
_cell_length_b        25.43476
_cell_length_c         8.02119

_cell_angle_alpha     79.69474
_cell_angle_beta     71.20676
_cell_angle_gamma     90.80377

_symmetry_space_group_name_Hall 'P 1'
_symmetry_space_group_name_H-M  'P 1'

loop_
_symmetry_equiv_pos_as_xyz
 'x,y,z'

loop_
_atom_site_label
_atom_site_type_symbol
_atom_site_fract_x
_atom_site_fract_y
_atom_site_fract_z
_atom_site_charge
H          H       0.07218   0.81812   0.15820   0.10506
H          H       0.09629   0.73683   0.09104   0.12318
H          H       0.15929   0.83739   0.14936   0.10777
H          H       0.13340   0.91712   0.21319   0.10106
H          H       0.26924   0.38626   0.04383   0.11295
H          H       0.31384   0.37846   0.10316   0.10218
H          H       0.32759   0.54997   0.98697   0.11262
H          H       0.28259   0.55754   0.42756   0.11110
H          H       0.23682   0.62406   0.38570   0.11412
H          H       0.21614   0.71209   0.36548   0.10218
H          H       0.14869   0.63983   0.26076   0.11604
H          H       0.16974   0.55166   0.27972   0.11373
H          H       0.16142   0.43430   0.34505   0.11322
H          H       0.13213   0.35290   0.36562   0.10543
H          H       0.18827   0.25222   0.05694   0.11585
H          H       0.21671   0.33483   0.04405   0.10909
H          H       0.17928   0.76517   0.34441   0.06420
H          H       0.35600   0.41809   0.10735   0.06328
H          H       0.12293   0.25884   0.42454   0.06128
H          H       0.13217   0.02060   0.14280   0.10078
H          H       0.15853   0.10580   0.12164   0.11661
H          H       0.10129   0.19520   0.40472   0.11038
H          H       0.07469   0.11150   0.43633   0.10501
H          H       0.47510   0.59134   0.49361   0.10201
H          H       0.46110   0.40044   0.15635   0.10409
H          H       0.48930   0.32922   0.22153   0.10107
H          H       0.59325   0.51395   0.10359   0.10491
H          H       0.56538   0.58527   0.03257   0.09990
H          H       0.57907   0.32105   0.26749   0.10218
H          H       0.61959   0.34681   0.06199   0.10569
H          H       0.66768   0.35489   0.05740   0.12407
H          H       0.65013   0.49026   0.31726   0.10465
H          H       0.60245   0.48113   0.32813   0.09987
H          H       0.56015   0.62020   0.27303   0.10193
H          H       0.57487   0.71696   0.18513   0.11639
H          H       0.50049   0.74786   0.12927   0.10838
H          H       0.48742   0.65086   0.19043   0.10626
H          H       0.43582   0.56982   0.20458   0.10401
H          H       0.38784   0.56682   0.20547   0.11948
H          H       0.40148   0.42850   0.45007   0.10560
H          H       0.44935   0.43278   0.44243   0.09848
H          H       0.49458   0.28295   0.48866   0.10271
H          H       0.47946   0.18550   0.05134   0.11418
H          H       0.55409   0.17000   0.10261   0.10900
H          H       0.56718   0.26651   0.05746   0.10458
H          H       0.52460   0.09341   0.30902   0.28843
H          H       0.49621   0.10065   0.47358   0.28938
H          H       0.55756   0.80593   0.19377   0.28143
H          H       0.53233   0.81851   0.36935   0.28399
H          H       0.12070   0.96886   0.45650   0.10275
H          H       0.05160   0.07486   0.24484   0.10466
H          H       0.00161   0.06890   0.33565   0.10312
H          H       0.00355   0.84143   0.00338   0.10427
H          H       0.05245   0.84689   0.41705   0.10333
H          H       0.93320   0.94603   0.30223   0.10185
H          H       0.92225   0.89288   0.12031   0.10371
H          H       0.89626   0.80701   0.14537   0.11675
H          H       0.95579   0.71958   0.32835   0.11032
H          H       0.98087   0.80418   0.30898   0.10551
H          H       0.78096   0.52920   0.28997   0.11167
H          H       0.73466   0.53821   0.25657   0.10024
H          H       0.73223   0.37527   0.18354   0.11339
H          H       0.77823   0.36578   0.22491   0.11194
H          H       0.81726   0.29261   0.35712   0.11238
H          H       0.83731   0.20386   0.38205   0.10253
H          H       0.90568   0.27569   0.47796   0.11557
H          H       0.88533   0.36455   0.45361   0.11354
H          H       0.89044   0.48065   0.44129   0.11374
H          H       0.91876   0.56162   0.43631   0.10546
H          H       0.86721   0.66265   0.21437   0.11420
H          H       0.83843   0.58098   0.22336   0.11216
H          H       0.87407   0.15008   0.40411   0.06464
H          H       0.69459   0.50107   0.21617   0.06092
H          H       0.92581   0.65754   0.39729   0.06549
H          H       0.98286   0.09830   0.09858   0.10571
H          H       0.95772   0.17845   0.16792   0.12270
H          H       0.89378   0.07908   0.10716   0.10686
H          H       0.91944  -0.00101   0.04650   0.10177
H          H       0.07133   0.81710   0.65290   0.10697
H          H       0.09622   0.73703   0.58036   0.12329
H          H       0.15820   0.83339   0.64166   0.10816
H          H       0.13360   0.91448   0.70478   0.10193
H          H       0.26785   0.38651   0.54865   0.11242
H          H       0.31216   0.37760   0.61083   0.10306
H          H       0.32708   0.54897   0.49056   0.11238
H          H       0.28286   0.55747   0.92582   0.11188
H          H       0.23759   0.62426   0.87403   0.11315
H          H       0.21643   0.71194   0.85216   0.10332
H          H       0.14784   0.63634   0.76912   0.11576
H          H       0.16941   0.54869   0.78912   0.11344
H          H       0.16470   0.43270   0.81849   0.11287
H          H       0.13735   0.35072   0.82111   0.10367
H          H       0.18962   0.25263   0.52475   0.11446
H          H       0.21894   0.33468   0.50480   0.11212
H          H       0.17933   0.76397   0.83312   0.06384
H          H       0.35470   0.41669   0.61679   0.06235
H          H       0.12978   0.25649   0.86968   0.06085
H          H       0.13131   0.02142   0.64183   0.10433
H          H       0.15806   0.10670   0.61381   0.11676
H          H       0.10160   0.19514   0.91661   0.10895
H          H       0.07566   0.11156   0.93835   0.10542
H          H       0.47547   0.59352   0.98951   0.10068
H          H       0.45991   0.39828   0.65871   0.10470
H          H       0.48766   0.32646   0.72512   0.10109
H          H       0.59202   0.50986   0.61278   0.10485
H          H       0.56397   0.58160   0.54952   0.10147
H          H       0.57852   0.31675   0.75550   0.10198
H          H       0.61869   0.34243   0.55179   0.10775
H          H       0.66665   0.34883   0.54966   0.12089
H          H       0.64979   0.48375   0.81220   0.10520
H          H       0.60210   0.47570   0.82363   0.09813
H          H       0.56036   0.62967   0.76879   0.10453
H          H       0.57367   0.72653   0.70760   0.11593
H          H       0.50294   0.74895   0.59673   0.10417
H          H       0.48856   0.65205   0.68442   0.10464
H          H       0.43509   0.56735   0.70859   0.10392
H          H       0.38720   0.56482   0.70727   0.12245
H          H       0.40164   0.42856   0.95850   0.10615
H          H       0.44961   0.43350   0.94638   0.10034
H          H       0.49345   0.28218   0.98919   0.10410
H          H       0.48154   0.18630   0.53782   0.11480
H          H       0.55182   0.16287   0.62500   0.10675
H          H       0.56544   0.25966   0.56277   0.10493
H          H       0.52199   0.08880   0.84258   0.28680
H          H       0.49385   0.09862   0.00411   0.28690
H          H       0.55883   0.81373   0.75791   0.29648
H          H       0.53045   0.82218   0.92009   0.28682
H          H       0.12197   0.96875   0.95100   0.10286
H          H       0.05021   0.07527   0.74514   0.10611
H          H       0.00018   0.06909   0.83538   0.10386
H          H       0.00244   0.84045   0.50915   0.10509
H          H       0.05362   0.84756   0.91186   0.10345
H          H       0.93190   0.94533   0.80654   0.10287
H          H       0.92187   0.89354   0.61386   0.10079
H          H       0.89606   0.80802   0.63117   0.11546
H          H       0.95322   0.71938   0.83554   0.11085
H          H       0.97845   0.80346   0.81977   0.10502
H          H       0.77856   0.52740   0.78885   0.11236
H          H       0.73241   0.53375   0.75058   0.10122
H          H       0.73260   0.37058   0.67690   0.11290
H          H       0.77862   0.36411   0.71996   0.11147
H          H       0.81685   0.29338   0.84708   0.11464
H          H       0.83677   0.20452   0.87298   0.10214
H          H       0.90394   0.27536   0.98447   0.11581
H          H       0.88379   0.36440   0.95748   0.11388
H          H       0.88992   0.48141   0.92817   0.11286
H          H       0.91763   0.56268   0.92765   0.10659
H          H       0.86518   0.66316   0.71293   0.11463
H          H       0.83615   0.58124   0.72672   0.11397
H          H       0.87363   0.15090   0.89553   0.06530
H          H       0.69367   0.49528   0.70464   0.06037
H          H       0.92378   0.65844   0.89522   0.06575
H          H       0.98091   0.09715   0.59796   0.10549
H          H       0.95600   0.17761   0.66477   0.12348
H          H       0.89429   0.07816   0.59716   0.10833
H          H       0.92027   0.99852   0.53537   0.10141
C          C       0.10041   0.87325   0.43800   0.05876
C          C       0.09085   0.82149   0.04351  -0.11638
C          C       0.10409   0.77668   0.50051  -0.16205
C          C       0.12950   0.78188   0.36234   0.20453
C          C       0.14014   0.83321   0.26103  -0.18514
C          C       0.12557   0.87799   0.29783  -0.12171
C          C       0.20875   0.43802   0.41465   0.37308
C          C       0.24656   0.47722   0.44496   0.37148
C          C       0.21493   0.52916   0.36953   0.37773
C          C       0.20436   0.58234   0.33655   0.00556
C          C       0.19203   0.38957   0.42223   0.00188
C          C       0.27261   0.47240   0.48333   0.00896
C          C       0.28219   0.42170   0.03209  -0.09825
C          C       0.30702   0.41768   0.06436  -0.13605
C          C       0.32352   0.46396   0.04930   0.06720
C          C       0.31458   0.51459  -0.00101  -0.10366
C          C       0.28991   0.51869   0.96586  -0.09429
C          C       0.21782   0.62816   0.35544  -0.09866
C          C       0.20621   0.67714   0.34357  -0.13564
C          C       0.18090   0.68144   0.31366   0.05749
C          C       0.16805   0.63596   0.28671  -0.10554
C          C       0.17968   0.58717   0.29767  -0.09889
C          C       0.16737   0.39438   0.38425  -0.10011
C          C       0.15110   0.34885   0.39682  -0.13378
C          C       0.15904   0.29729   0.44726   0.06005
C          C       0.18384   0.29265   0.48463  -0.11233
C          C       0.20005   0.33800   0.47278  -0.09287
C          C       0.16746   0.73142   0.32682   0.06754
C          C       0.34971   0.45908   0.08100   0.06768
C          C       0.14172   0.25029   0.45743   0.06300
C          C       0.10176   0.05958   0.04350   0.06770
C          C       0.12577   0.05879   0.09001  -0.13173
C          C       0.14060   0.10614   0.07859  -0.14359
C          C       0.13242   0.15635   0.01616   0.19900
C          C       0.10778   0.15767   0.46140  -0.16554
C          C       0.09264   0.11028   0.47922  -0.12106
C          C       0.47558   0.50850   0.06895   0.02855
C          C       0.49163   0.46597   0.10922   0.03157
C          C       0.51883   0.47847   0.11023   0.00571
C          C       0.52987   0.53316   0.06684   0.03316
C          C       0.51368   0.57487   0.02496   0.03000
C          C       0.48730   0.56131   0.02750  -0.18575
C          C       0.48168   0.41082   0.15371  -0.13073
C          C       0.49739   0.37071   0.19217  -0.13528
C          C       0.52427   0.38160   0.19647   0.03237
C          C       0.53504   0.43637   0.15657   0.00483
C          C       0.56223   0.44880   0.15770   0.03139
C          C       0.57247   0.50381   0.10938  -0.13191
C          C       0.55693   0.54390   0.06818  -0.13644
C          C       0.54072   0.33995   0.23483   0.03488
C          C       0.56703   0.35346   0.23375  -0.18673
C          C       0.57839   0.40635   0.19739   0.02881
C          C       0.52316   0.62883   0.48449   0.04003
C          C       0.44673   0.50173   0.07607   0.06449
C          C       0.60705   0.41394   0.19334   0.06475
C          C       0.53174   0.28237   0.26754   0.04034
C          C       0.62606   0.37788   0.12056  -0.12243
C          C       0.65311   0.38245   0.11569  -0.15038
C          C       0.66282   0.42374   0.18106   0.19045
C          C       0.64403   0.46010   0.25373  -0.17111
C          C       0.61684   0.45485   0.26029  -0.13063
C          C       0.54782   0.64829   0.34614  -0.11341
C          C       0.55609   0.70273   0.29616  -0.20445
C          C       0.53974   0.73997   0.38260   0.27213
C          C       0.51363   0.72215   0.04905  -0.21401
C          C       0.50624   0.66743   0.08309  -0.11057
C          C       0.42858   0.53945   0.14685  -0.12325
C          C       0.40160   0.53768   0.14982  -0.15070
C          C       0.39101   0.49687   0.08701   0.19250
C          C       0.40871   0.45828   0.01961  -0.17516
C          C       0.43599   0.46113   0.01297  -0.12933
C          C       0.50746   0.25855   0.40160  -0.11054
C          C       0.50009   0.20394   0.42972  -0.20979
C          C       0.51681   0.17110   0.32372   0.27055
C          C       0.54116   0.19437   0.18976  -0.21259
C          C       0.54844   0.24891   0.16369  -0.11117
C          C       0.08592   0.00997   0.05213   0.02721
C          C       0.05672   0.00549   0.11707   0.02953
C          C       0.04229   0.95987   0.09751   0.00653
C          C       0.05708   0.91779   0.02365   0.03085
C          C       0.08490   0.91983   0.48499   0.02683
C          C       0.09969   0.96627   0.99217  -0.18855
C          C       0.04099   0.04353   0.21005  -0.13476
C          C       0.01300   0.04011   0.26145  -0.13339
C          C       0.99808   0.99822   0.22566   0.03159
C          C       0.01294   0.95613   0.15221   0.00728
C          C       0.99854   0.91036   0.13317   0.03033
C          C       0.01421   0.87257   0.03872  -0.13221
C          C       0.04103   0.87576   0.49056  -0.13468
C          C       0.96909   0.99585   0.26759   0.02664
C          C       0.95550   0.94882   0.26018  -0.18517
C          C       0.96936   0.90523   0.20061   0.02421
C          C       0.95370   0.85513   0.21149   0.06800
C          C       0.92924   0.85501   0.17020  -0.13309
C          C       0.91468   0.80719   0.18309  -0.14488
C          C       0.92372   0.75731   0.24042   0.20088
C          C       0.94808   0.75720   0.28358  -0.16634
C          C       0.96251   0.80502   0.27049  -0.11922
C          C       0.84615   0.47817   0.33383   0.37299
C          C       0.80854   0.44074   0.29599   0.37018
C          C       0.83996   0.38747   0.36863   0.37451
C          C       0.85027   0.33405   0.40134   0.00957
C          C       0.86271   0.52592   0.33290   0.00172
C          C       0.78224   0.44682   0.26189   0.00458
C          C       0.77008   0.49586   0.26676  -0.09375
C          C       0.74433   0.50055   0.24784  -0.13647
C          C       0.73034   0.45688   0.21979   0.06714
C          C       0.74304   0.40831   0.20908  -0.10163
C          C       0.76845   0.40325   0.23135  -0.09824
C          C       0.83635   0.28828   0.38611  -0.09827
C          C       0.84760   0.23894   0.40056  -0.13465
C          C       0.87299   0.23433   0.42923   0.05777
C          C       0.88633   0.27987   0.45211  -0.10505
C          C       0.87509   0.32898   0.43836  -0.10059
C          C       0.88563   0.52058   0.39084  -0.10310
C          C       0.90142   0.56585   0.38692  -0.13202
C          C       0.89490   0.61744   0.32253   0.05873
C          C       0.87193   0.62255   0.26418  -0.11650
C          C       0.85602   0.57752   0.26982  -0.09277
C          C       0.88612   0.18398   0.41878   0.06677
C          C       0.70303   0.46184   0.20520   0.07039
C          C       0.91123   0.66464   0.32297   0.06655
C          C       0.95353   0.04241   0.31253   0.06000
C          C       0.96372   0.09394   0.21001  -0.11965
C          C       0.94975   0.13880   0.24738  -0.15935
C          C       0.92418   0.13358   0.38402   0.20531
C          C       0.91349   0.08234   0.48601  -0.18715
C          C       0.92818   0.03764   0.45098  -0.12011
C          C       0.10112   0.87251   0.93684   0.05561
C          C       0.09029   0.82160   0.53993  -0.11890
C          C       0.10419   0.77588   0.00677  -0.16159
C          C       0.12910   0.77973   0.86488   0.20187
C          C       0.13966   0.83035   0.75727  -0.18437
C          C       0.12572   0.87588   0.79296  -0.12419
C          C       0.20894   0.43721   0.92260   0.37169
C          C       0.24717   0.47687   0.94558   0.37013
C          C       0.21543   0.52829   0.86926   0.37584
C          C       0.20465   0.58114   0.83502   0.00687
C          C       0.19238   0.38869   0.93038   0.00288
C          C       0.27338   0.47231   0.98171   0.00652
C          C       0.28106   0.42164   0.53590  -0.09730
C          C       0.30577   0.41705   0.56970  -0.13837
C          C       0.32259   0.46300   0.55332   0.06869
C          C       0.31391   0.51384   0.50223  -0.10326
C          C       0.28934   0.51848   0.46797  -0.09440
C          C       0.21826   0.62764   0.84779  -0.10093
C          C       0.20636   0.67630   0.83539  -0.13376
C          C       0.18059   0.67950   0.81154   0.05883
C          C       0.16755   0.63327   0.79078  -0.10425
C          C       0.17947   0.58482   0.80210  -0.09703
C          C       0.16964   0.39306   0.87046  -0.10341
C          C       0.15436   0.34727   0.87369  -0.13180
C          C       0.16099   0.29611   0.94121   0.05883
C          C       0.18354   0.29195   0.00387  -0.11295
C          C       0.19917   0.33755  -0.00295  -0.09655
C          C       0.16711   0.72944   0.82385   0.06598
C          C       0.34879   0.45775   0.58514   0.06789
C          C       0.14485   0.24885   0.94001   0.06795
C          C       0.10057   0.05996   0.54489   0.06951
C          C       0.12479   0.05947   0.58914  -0.13441
C          C       0.13986   0.10696   0.57358  -0.14195
C          C       0.13166   0.15708   0.51029   0.19740
C          C       0.10857   0.15732   0.96698  -0.16924
C          C       0.09369   0.11003   0.98043  -0.11867
C          C       0.47483   0.50611   0.57252   0.02896
C          C       0.49069   0.46321   0.61268   0.03099
C          C       0.51786   0.47512   0.61489   0.00332
C          C       0.52894   0.52966   0.57396   0.03127
C          C       0.51306   0.57165   0.53070   0.03341
C          C       0.48670   0.55875   0.53204  -0.18879
C          C       0.48051   0.40822   0.65665  -0.13270
C          C       0.49606   0.36776   0.69511  -0.13786
C          C       0.52311   0.37804   0.69765   0.03176
C          C       0.53405   0.43267   0.65851   0.00607
C          C       0.56136   0.44478   0.65800   0.03231
C          C       0.57138   0.49981   0.61621  -0.13400
C          C       0.55578   0.54019   0.57892  -0.13501
C          C       0.53966   0.33607   0.73210   0.03324
C          C       0.56626   0.34928   0.72608  -0.19024
C          C       0.57769   0.40203   0.69138   0.02825
C          C       0.52293   0.63254   0.98585   0.04537
C          C       0.44609   0.49986   0.57718   0.06366
C          C       0.60640   0.40906   0.68616   0.06773
C          C       0.53032   0.27859   0.76932   0.04125
C          C       0.62523   0.37283   0.61248  -0.13226
C          C       0.65225   0.37654   0.60867  -0.14616
C          C       0.66212   0.41739   0.67500   0.19279
C          C       0.64350   0.45389   0.74839  -0.17232
C          C       0.61632   0.44938   0.75468  -0.12957
C          C       0.54740   0.65513   0.85097  -0.10879
C          C       0.55492   0.70988   0.81558  -0.21115
C          C       0.53817   0.74410   0.91481   0.26650
C          C       0.51551   0.72087   0.52460  -0.21637
C          C       0.50737   0.66626   0.57354  -0.11248
C          C       0.42790   0.53736   0.64911  -0.12250
C          C       0.40100   0.53588   0.65047  -0.15615
C          C       0.39055   0.49550   0.58501   0.19375
C          C       0.40836   0.45738   0.51499  -0.17690
C          C       0.43557   0.46002   0.51009  -0.12928
C          C       0.50595   0.25640   0.90599  -0.10907
C          C       0.49808   0.20184   0.94171  -0.20866
C          C       0.51456   0.16722   0.84248   0.27047
C          C       0.53902   0.18881   0.70629  -0.21445
C          C       0.54667   0.24346   0.67127  -0.11297
C          C       0.08465   0.01026   0.55447   0.02673
C          C       0.05544   0.00569   0.61843   0.03154
C          C       0.04106   0.95987   0.59933   0.00532
C          C       0.05593   0.91775   0.52591   0.03195
C          C       0.08603   0.91966   0.98250   0.02967
C          C       0.09843   0.96645   0.49582  -0.18823
C          C       0.03964   0.04379   0.71064  -0.13569
C          C       0.01165   0.04019   0.76211  -0.13340
C          C       0.99676   0.99797   0.72780   0.03082
C          C       0.01168   0.95592   0.65437   0.00724
C          C       0.99731   0.90997   0.63618   0.02932
C          C       0.01305   0.87204   0.54283  -0.13224
C          C       0.04218   0.87610   0.98691  -0.13518
C          C       0.96773   0.99538   0.77147   0.02769
C          C       0.95420   0.94830   0.76405  -0.18613
C          C       0.96812   0.90487   0.70343   0.02540
C          C       0.95243   0.85499   0.71230   0.06763
C          C       0.92849   0.85541   0.66502  -0.13177
C          C       0.91397   0.80787   0.67435  -0.14341
C          C       0.92244   0.75782   0.73556   0.19831
C          C       0.94615   0.75719   0.78609  -0.16846
C          C       0.96066   0.80471   0.77521  -0.11715
C          C       0.84475   0.47850   0.83176   0.37199
C          C       0.80739   0.44033   0.79365   0.37002
C          C       0.83916   0.38775   0.86382   0.37510
C          C       0.84944   0.33437   0.89684   0.00615
C          C       0.86125   0.52651   0.82926   0.00187
C          C       0.78114   0.44521   0.75896   0.00463
C          C       0.76829   0.49349   0.76408  -0.09363
C          C       0.74264   0.49666   0.74301  -0.13915
C          C       0.72939   0.45211   0.71418   0.07089
C          C       0.74277   0.40430   0.70354  -0.10121
C          C       0.76819   0.40086   0.72661  -0.10014
C          C       0.83573   0.28879   0.87860  -0.10162
C          C       0.84692   0.23942   0.89368  -0.13283
C          C       0.87201   0.23463   0.92645   0.05683
C          C       0.88494   0.27983   0.95422  -0.10521
C          C       0.87381   0.32903   0.93905  -0.09969
C          C       0.88461   0.52135   0.88244  -0.10011
C          C       0.90015   0.56677   0.87979  -0.13356
C          C       0.89327   0.61826   0.81776   0.05911
C          C       0.87009   0.62316   0.76176  -0.11473
C          C       0.85410   0.57799   0.76939  -0.09453
C          C       0.88526   0.18439   0.91591   0.06756
C          C       0.70218   0.45600   0.69757   0.06960
C          C       0.90954   0.66547   0.81839   0.06579
C          C       0.95216   0.04197   0.81735   0.05571
C          C       0.96207   0.09323   0.71160  -0.11599
C          C       0.94824   0.13832   0.74788  -0.16559
C          C       0.92304   0.13360   0.88771   0.20531
C          C       0.91265   0.08270   0.99352  -0.18685
C          C       0.92720   0.03773   0.95896  -0.12136
N          N       0.19942   0.48604   0.37025  -0.41521
N          N       0.23200   0.43159   0.45527  -0.40904
N          N       0.23884   0.52696   0.40334  -0.41229
N          N       0.14230   0.73460   0.33327  -0.27016
N          N       0.14847   0.20137   0.01503  -0.28747
N          N       0.36457   0.50075   0.07796  -0.27915
N          N       0.50854   0.11636   0.34618  -0.64153
N          N       0.54811   0.79515   0.32915  -0.64076
N          N       0.85542   0.42985   0.37374  -0.41301
N          N       0.82299   0.48568   0.29273  -0.40791
N          N       0.81631   0.39064   0.33157  -0.41395
N          N       0.90798   0.71174   0.24287  -0.29248
N          N       0.68981   0.42188   0.18112  -0.28714
N          N       0.91135   0.18090   0.41070  -0.27170
N          N       0.19965   0.48495   0.87532  -0.41099
N          N       0.23220   0.43111   0.96326  -0.40754
N          N       0.23967   0.52648   0.89864  -0.41381
N          N       0.14159   0.73198   0.83842  -0.27015
N          N       0.14829   0.20213   0.50209  -0.28992
N          N       0.36413   0.49942   0.57593  -0.27658
N          N       0.50602   0.11227   0.87476  -0.64309
N          N       0.54657   0.79914   0.88641  -0.64235
N          N       0.85437   0.43038   0.86973  -0.41190
N          N       0.82131   0.48552   0.79380  -0.40794
N          N       0.81563   0.39053   0.82565  -0.41208
N          N       0.90668   0.71249   0.73594  -0.28892
N          N       0.68906   0.41542   0.67609  -0.28990
N          N       0.91020   0.18096   0.91424  -0.26665

