data_crystal

_audit_creation_method 'AiiDA-DDEC plugin'

_cell_length_a        52.21921
_cell_length_b        25.61409
_cell_length_c         7.99264

_cell_angle_alpha     70.08602
_cell_angle_beta     99.62286
_cell_angle_gamma     90.46137

_symmetry_space_group_name_Hall 'P 1'
_symmetry_space_group_name_H-M  'P 1'

loop_
_symmetry_equiv_pos_as_xyz
 'x,y,z'

loop_
_atom_site_label
_atom_site_type_symbol
_atom_site_fract_x
_atom_site_fract_y
_atom_site_fract_z
_atom_site_charge
H          H       0.07744   0.83312   0.29270   0.10932
H          H       0.10528   0.75145   0.31919   0.13214
H          H       0.15260   0.86101   0.47424   0.10860
H          H       0.12507   0.94199   0.44505   0.09854
H          H       0.27205   0.38321   0.43373   0.11162
H          H       0.32044   0.36758   0.48215   0.11401
H          H       0.27967   0.53690   0.00801   0.08213
H          H       0.22536   0.64669   0.46872   0.11242
H          H       0.20466   0.73624   0.45263   0.11271
H          H       0.16402   0.56167   0.24294   0.07287
H          H       0.15489   0.45975   0.36662   0.10853
H          H       0.12870   0.38162   0.32340   0.11897
H          H       0.20234   0.33653   0.31470   0.08605
H          H       0.16899   0.78450   0.98249   0.06383
H          H       0.36239   0.40172   0.41527   0.06589
H          H       0.12835   0.27789   0.38252   0.07185
H          H       0.12667   0.03985   0.32086   0.09815
H          H       0.15006   0.12359   0.33690   0.12296
H          H       0.09176   0.23008   0.42091   0.11081
H          H       0.06790   0.14772   0.40589   0.10726
H          H       0.46920   0.33611   0.18857   0.09975
H          H       0.46712   0.52324   0.18898   0.10483
H          H       0.49702   0.59879   0.13061   0.10375
H          H       0.58539   0.43500   0.47989   0.10371
H          H       0.55541   0.35964   0.53803   0.10278
H          H       0.58292   0.62283   0.47482   0.09926
H          H       0.61190   0.44887   0.24173   0.10729
H          H       0.65956   0.43960   0.24675   0.12600
H          H       0.65510   0.59541   0.29135   0.10717
H          H       0.60782   0.60440   0.28237   0.10184
H          H       0.55243   0.29580   0.34098   0.10578
H          H       0.56542   0.20082   0.36476   0.10465
H          H       0.49287   0.19263   0.03087   0.11613
H          H       0.48032   0.28804   0.00479   0.09700
H          H       0.44125   0.51087   0.43904   0.10762
H          H       0.39388   0.52214   0.43714   0.12693
H          H       0.39790   0.36577   0.38903   0.10713
H          H       0.44457   0.35422   0.38506   0.09878
H          H       0.49984   0.66163   0.33104   0.10584
H          H       0.48696   0.75704   0.30381   0.10624
H          H       0.55997   0.76471   0.12305   0.11616
H          H       0.57188   0.66835   0.15389   0.09673
H          H       0.49571   0.83118   0.42584   0.29303
H          H       0.52318   0.83285   0.56341   0.29545
H          H       0.52898   0.12558   0.10250   0.29663
H          H       0.55678   0.12733   0.23673   0.28867
H          H       0.11540   0.99176   0.11169   0.10072
H          H       0.05015   0.10764   0.18364   0.10317
H          H       0.00320   0.10426   0.17881   0.10680
H          H       0.00369   0.86460   0.50996   0.10347
H          H       0.05053   0.86861   0.51194   0.10682
H          H       0.93835   0.97919   0.08040   0.10262
H          H       0.92709   0.93182   0.37500   0.09954
H          H       0.90393   0.84750   0.35974   0.12363
H          H       0.96165   0.74308   0.27097   0.11034
H          H       0.98574   0.82523   0.28539   0.10653
H          H       0.78066   0.58475   0.25132   0.11175
H          H       0.73214   0.59698   0.20339   0.11373
H          H       0.77451   0.43045   0.20260   0.08153
H          H       0.82956   0.32594   0.23337   0.10977
H          H       0.85027   0.23619   0.25067   0.11205
H          H       0.88997   0.40845   0.45895   0.07319
H          H       0.89880   0.51381   0.32868   0.10862
H          H       0.92486   0.59216   0.37112   0.11768
H          H       0.85118   0.63628   0.38447   0.08716
H          H       0.88583   0.18593   0.21501   0.06148
H          H       0.69063   0.55738   0.27057   0.06765
H          H       0.92492   0.69584   0.31037   0.07200
H          H       0.97588   0.13889   0.40156   0.10784
H          H       0.94815   0.22032   0.37845   0.13362
H          H       0.90177   0.11118   0.22333   0.10708
H          H       0.92910   0.03065   0.24830   0.09927
H          H       0.16884   0.50912   0.06656   0.10704
H          H       0.23358   0.39338   0.16655   0.10592
H          H       0.24710   0.55788   0.17856   0.10620
H          H       0.88517   0.46275   0.12654   0.10510
H          H       0.81970   0.57613   0.03018   0.10552
H          H       0.80733   0.40988   0.03118   0.10765
H          H       0.07748   0.83590   0.79638   0.10698
H          H       0.10522   0.75376   0.82419   0.13002
H          H       0.15351   0.85996   0.97926   0.10762
H          H       0.12578   0.94039   0.94979   0.09954
H          H       0.27290   0.38942   0.93431   0.10986
H          H       0.32123   0.37336   0.98103   0.11371
H          H       0.27992   0.53759   0.48576   0.08328
H          H       0.22588   0.64334   0.97577   0.10925
H          H       0.20526   0.73357   0.95603   0.11188
H          H       0.16473   0.56326   0.74628   0.07217
H          H       0.15455   0.45830   0.86009   0.10914
H          H       0.12813   0.38047   0.81712   0.11884
H          H       0.20383   0.33812   0.81434   0.08567
H          H       0.16909   0.78638   0.48799   0.06200
H          H       0.36292   0.40587   0.90740   0.06697
H          H       0.12689   0.27695   0.87986   0.07140
H          H       0.12651   0.04125   0.82329   0.09891
H          H       0.15012   0.12438   0.84257   0.12257
H          H       0.09067   0.22810   0.92149   0.11097
H          H       0.06717   0.14526   0.90808   0.10695
H          H       0.47025   0.33835   0.69301   0.09906
H          H       0.46810   0.52561   0.69149   0.10473
H          H       0.49814   0.60085   0.63443   0.10265
H          H       0.58513   0.43165   0.98992   0.10450
H          H       0.55500   0.35664   0.04363   0.10204
H          H       0.58216   0.62002   0.97621   0.09836
H          H       0.61233   0.45157   0.73279   0.10730
H          H       0.66005   0.44284   0.74228   0.12654
H          H       0.65385   0.59052   0.78844   0.10678
H          H       0.60697   0.59996   0.78423   0.09884
H          H       0.55325   0.29836   0.84134   0.10571
H          H       0.56582   0.20279   0.86789   0.10599
H          H       0.49332   0.19533   0.53229   0.11638
H          H       0.48115   0.29119   0.50395   0.09725
H          H       0.44005   0.50826   0.93929   0.10739
H          H       0.39280   0.51972   0.94391   0.12747
H          H       0.39806   0.36729   0.87828   0.10792
H          H       0.44487   0.35575   0.87974   0.09800
H          H       0.49871   0.65987   0.83006   0.10616
H          H       0.48647   0.75572   0.80061   0.10663
H          H       0.55975   0.76626   0.63361   0.11545
H          H       0.57222   0.67036   0.66284   0.09695
H          H       0.49603   0.83047   0.92225   0.29324
H          H       0.52408   0.83202   0.05413   0.29730
H          H       0.52921   0.12713   0.60943   0.29724
H          H       0.55690   0.12885   0.74496   0.29264
H          H       0.11531   0.99393   0.61083   0.10120
H          H       0.04990   0.11090   0.67996   0.10259
H          H       0.00316   0.10675   0.67934   0.10622
H          H       0.00378   0.86165   0.01255   0.10174
H          H       0.05054   0.86566   0.01385   0.10618
H          H       0.93847   0.97984   0.58670   0.10125
H          H       0.92683   0.93218   0.87191   0.10150
H          H       0.90308   0.84895   0.85195   0.12296
H          H       0.96310   0.74404   0.77953   0.10991
H          H       0.98659   0.82731   0.78972   0.10586
H          H       0.78118   0.58468   0.77613   0.11134
H          H       0.73276   0.59914   0.73007   0.11445
H          H       0.77553   0.43679   0.70494   0.08076
H          H       0.82787   0.32786   0.72583   0.11342
H          H       0.84811   0.23732   0.74526   0.11241
H          H       0.89034   0.40898   0.95647   0.07238
H          H       0.90022   0.51238   0.82545   0.10859
H          H       0.92726   0.58927   0.86891   0.11821
H          H       0.85043   0.63474   0.87500   0.08637
H          H       0.88435   0.18562   0.71608   0.06301
H          H       0.69157   0.56449   0.79103   0.06505
H          H       0.92843   0.69256   0.81549   0.07099
H          H       0.97601   0.13713   0.89250   0.10656
H          H       0.94844   0.21932   0.86911   0.13058
H          H       0.89999   0.11096   0.71692   0.10780
H          H       0.92801   0.03084   0.74583   0.09930
H          H       0.16924   0.51038   0.57161   0.10689
H          H       0.23434   0.39622   0.66471   0.10611
H          H       0.24737   0.56168   0.66881   0.10788
H          H       0.88511   0.46222   0.62900   0.10505
H          H       0.82045   0.57861   0.52504   0.10796
H          H       0.80679   0.41337   0.52121   0.10700
C          C       0.09878   0.89314   0.11280   0.07070
C          C       0.09356   0.83901   0.21896  -0.12689
C          C       0.10920   0.79319   0.23626  -0.13860
C          C       0.13081   0.79910   0.14833   0.18645
C          C       0.13692   0.85344   0.04888  -0.17005
C          C       0.12121   0.89910   0.03230  -0.12594
C          C       0.18970   0.49912   0.09941  -0.19220
C          C       0.19908   0.44612   0.11600   0.07912
C          C       0.22606   0.43386   0.15822  -0.18676
C          C       0.24350   0.47413   0.17786   0.08040
C          C       0.23364   0.52703   0.15837  -0.18760
C          C       0.20674   0.53982   0.12256   0.08263
C          C       0.19650   0.59452   0.11112   0.01790
C          C       0.18138   0.40365   0.08783   0.01541
C          C       0.27181   0.46146   0.21480   0.01532
C          C       0.28370   0.41281   0.34872  -0.10042
C          C       0.31057   0.40414   0.37560  -0.16676
C          C       0.32508   0.44320   0.26383   0.19401
C          C       0.28822   0.49862   0.11391   0.04157
C          C       0.20843   0.64410   0.03294  -0.09341
C          C       0.19691   0.69429   0.02121  -0.17010
C          C       0.17390   0.69441   0.09069   0.19345
C          C       0.17358   0.59937   0.17746   0.04913
C          C       0.15999   0.41710   0.45609  -0.09904
C          C       0.14538   0.37365   0.43222  -0.17406
C          C       0.15166   0.31768   0.04405   0.18901
C          C       0.18625   0.34752   0.20046   0.04061
C          C       0.16169   0.74745   0.07593   0.03652
C          C       0.35320   0.43211   0.28487   0.04357
C          C       0.13687   0.27106   0.01802   0.04250
C          C       0.09511   0.08620   0.11390   0.06545
C          C       0.11898   0.08100   0.23111  -0.13075
C          C       0.13212   0.12749   0.24130  -0.14521
C          C       0.12237   0.18123   0.12850   0.20428
C          C       0.09875   0.18689   0.00814  -0.16906
C          C       0.08540   0.14018   0.00191  -0.12201
C          C       0.47372   0.42205   0.15563   0.02503
C          C       0.49150   0.46534   0.13238   0.03041
C          C       0.51706   0.45564   0.10239   0.00807
C          C       0.52512   0.40185   0.10605   0.03085
C          C       0.50791   0.35762   0.14715   0.03107
C          C       0.48266   0.36945   0.16615  -0.19117
C          C       0.48531   0.51776   0.14649  -0.13406
C          C       0.50200   0.56003   0.11352  -0.13540
C          C       0.52654   0.55387   0.06374   0.03234
C          C       0.53461   0.50001   0.06805   0.00747
C          C       0.56027   0.49018   0.04005   0.03052
C          C       0.56717   0.44064   0.52200  -0.13625
C          C       0.54985   0.39552   0.05914  -0.13366
C          C       0.54359   0.59828   0.01978   0.03050
C          C       0.56961   0.58921   0.49983  -0.19041
C          C       0.57861   0.53659   0.51108   0.02377
C          C       0.51562   0.30020   0.16641   0.04100
C          C       0.44612   0.43086   0.16484   0.07003
C          C       0.60634   0.52825   0.50472   0.06598
C          C       0.53600   0.65587  -0.00106   0.04343
C          C       0.62098   0.47933   0.14026  -0.12677
C          C       0.64759   0.47404   0.14469  -0.14333
C          C       0.66079   0.51731   0.51596   0.19079
C          C       0.64579   0.56353   0.38740  -0.17311
C          C       0.61917   0.56873   0.38333  -0.12687
C          C       0.53951   0.27383   0.26943  -0.10585
C          C       0.54672   0.21987   0.28493  -0.22689
C          C       0.53019   0.18990   0.19803   0.27220
C          C       0.50585   0.21494   0.10083  -0.20900
C          C       0.49888   0.26885   0.08600  -0.11306
C          C       0.43106   0.47778   0.04125  -0.12487
C          C       0.40469   0.48438   0.04205  -0.14781
C          C       0.39224   0.44495   0.16849   0.19243
C          C       0.40704   0.39742   0.29104  -0.17172
C          C       0.43335   0.39074   0.28789  -0.12581
C          C       0.51285   0.68405   0.40037  -0.10545
C          C       0.50568   0.73812   0.38349  -0.22799
C          C       0.52231   0.76836   0.46874   0.27121
C          C       0.54657   0.74182   0.05797  -0.20834
C          C       0.55320   0.68754   0.07502  -0.11424
C          C       0.08090   0.03656   0.10912   0.02627
C          C       0.05384   0.03362   0.11480   0.03234
C          C       0.04062   0.98624   0.09599   0.00668
C          C       0.05485   0.94080   0.08190   0.03221
C          C       0.08244   0.94181   0.09758   0.02542
C          C       0.09444   0.99026   0.10534  -0.18496
C          C       0.03957   0.07494   0.14953  -0.13506
C          C       0.01334   0.07310   0.14621  -0.13196
C          C       0.99894   0.02968   0.10761   0.03350
C          C       0.01311   0.98416   0.09350   0.00553
C          C      -0.00017   0.93670   0.07596   0.03153
C          C       0.01420   0.89503   0.04341  -0.13502
C          C       0.04043   0.89708   0.04537  -0.13314
C          C       0.97140   0.02894   0.09225   0.02447
C          C       0.95929   0.98058   0.08546  -0.18594
C          C       0.97274   0.93413   0.08188   0.02586
C          C       0.95824   0.88483   0.07769   0.06517
C          C       0.93485   0.89074   0.46499  -0.12984
C          C       0.92179   0.84404   0.45567  -0.14301
C          C       0.93040   0.79076   0.06161   0.20327
C          C       0.95391   0.78446   0.18354  -0.17006
C          C       0.96761   0.83071   0.19026  -0.12221
C          C       0.86425   0.47180   0.09591  -0.19158
C          C       0.85445   0.52468   0.07693   0.08087
C          C       0.82742   0.53573   0.03931  -0.18768
C          C       0.81027   0.49431   0.02635   0.08061
C          C       0.82054   0.44161   0.04697  -0.18780
C          C       0.84753   0.42999   0.07880   0.08093
C          C       0.85819   0.37549   0.09154   0.02239
C          C       0.87188   0.56796   0.10108   0.01575
C          C       0.78190   0.50592   0.99328   0.01458
C          C       0.76952   0.55570   0.34215  -0.09839
C          C       0.74253   0.56238   0.31512  -0.16668
C          C       0.72861   0.52361   0.43257   0.19109
C          C       0.76573   0.46823   0.09516   0.04147
C          C       0.84673   0.32558   0.17295  -0.09408
C          C       0.85834   0.27564   0.18362  -0.16804
C          C       0.88105   0.27599   0.11057   0.19338
C          C       0.88099   0.37110   0.02316   0.04702
C          C       0.89387   0.55631   0.23742  -0.09921
C          C       0.90836   0.59988   0.26117  -0.17511
C          C       0.90105   0.65450   0.14418   0.18777
C          C       0.86667   0.62396   0.98820   0.03993
C          C       0.89315   0.22316   0.12257   0.03657
C          C       0.70019   0.53131   0.40677   0.04334
C          C       0.91550   0.70138   0.17118   0.04248
C          C       0.95530   0.07775   0.07834   0.07064
C          C       0.95994   0.13289   0.47687  -0.12458
C          C       0.94428   0.17851   0.46113  -0.13974
C          C       0.92376   0.17180   0.04716   0.18563
C          C       0.91791   0.11758   0.14950  -0.16796
C          C       0.93338   0.07188   0.16369  -0.12653
C          C       0.09853   0.89524   0.61271   0.07026
C          C       0.09342   0.84132   0.72112  -0.12367
C          C       0.10898   0.79531   0.73888  -0.13844
C          C       0.13034   0.80083   0.64864   0.18588
C          C       0.13626   0.85497   0.54607  -0.17138
C          C       0.12069   0.90084   0.52962  -0.12517
C          C       0.19014   0.50107   0.60051  -0.19248
C          C       0.19971   0.44823   0.61691   0.08031
C          C       0.22672   0.43670   0.65556  -0.18687
C          C       0.24404   0.47759   0.67089   0.08015
C          C       0.23401   0.53037   0.65137  -0.18539
C          C       0.20705   0.54242   0.61960   0.08150
C          C       0.19661   0.59693   0.60891   0.01864
C          C       0.18219   0.40524   0.59092   0.01520
C          C       0.27236   0.46511   0.70504   0.01370
C          C       0.28440   0.41773   0.84432  -0.09816
C          C       0.31123   0.40876   0.87025  -0.16229
C          C       0.32558   0.44622   0.75258   0.19133
C          C       0.28858   0.50058   0.59706   0.04071
C          C       0.20814   0.64689   0.52872  -0.09626
C          C       0.19654   0.69679   0.51892  -0.17091
C          C       0.17380   0.69635   0.59197   0.19104
C          C       0.17394   0.60123   0.67877   0.04981
C          C       0.15940   0.41572   0.95106  -0.09904
C          C       0.14465   0.37245   0.92706  -0.17564
C          C       0.15271   0.31885   0.54792   0.18752
C          C       0.18746   0.34906   0.70194   0.04113
C          C       0.16150   0.74917   0.57874   0.03674
C          C       0.35372   0.43517   0.77500   0.04038
C          C       0.13802   0.27210   0.52134   0.04399
C          C       0.09531   0.08826   0.61442   0.06443
C          C       0.11906   0.08256   0.73332  -0.13067
C          C       0.13237   0.12873   0.74486  -0.14527
C          C       0.12302   0.18265   0.63095   0.20216
C          C       0.09955   0.18876   0.50867  -0.16846
C          C       0.08597   0.14237   0.50150  -0.12222
C          C       0.47462   0.42449   0.65669   0.02567
C          C       0.49240   0.46781   0.63340   0.03049
C          C       0.51791   0.45821   0.60230   0.00670
C          C       0.52590   0.40453   0.60478   0.03206
C          C       0.50878   0.36021   0.64785   0.03021
C          C       0.48362   0.37185   0.66837  -0.19011
C          C       0.48625   0.52010   0.64846  -0.13539
C          C       0.50303   0.56219   0.61649  -0.13348
C          C       0.52749   0.55618   0.56553   0.02907
C          C       0.53547   0.50256   0.56756   0.00683
C          C       0.56096   0.49307   0.53590   0.03200
C          C       0.56669   0.43754   0.02866  -0.13459
C          C       0.55043   0.39845   0.55473  -0.13436
C          C       0.54451   0.60063   0.52191   0.03248
C          C       0.56883   0.58647   0.00104  -0.18918
C          C       0.57796   0.53359   0.01609   0.02574
C          C       0.51640   0.30276   0.66731   0.04240
C          C       0.44693   0.43314   0.66322   0.07001
C          C       0.60574   0.52509   0.01168   0.06949
C          C       0.53680   0.65798   0.50277   0.03949
C          C       0.62150   0.48221   0.63240  -0.12400
C          C       0.64817   0.47721   0.63924  -0.14514
C          C       0.66012   0.51360   0.01911   0.18770
C          C       0.64497   0.55943   0.88951  -0.16733
C          C       0.61846   0.56495   0.88746  -0.12383
C          C       0.54023   0.27630   0.77073  -0.10597
C          C       0.54720   0.22211   0.78757  -0.22804
C          C       0.53052   0.19214   0.70166   0.27219
C          C       0.50633   0.21750   0.60272  -0.20742
C          C       0.49956   0.27162   0.58674  -0.11496
C          C       0.43204   0.48022   0.53906  -0.12648
C          C       0.40557   0.48669   0.53637  -0.14423
C          C       0.39285   0.44707   0.66044   0.18984
C          C       0.40745   0.39923   0.78285  -0.17217
C          C       0.43386   0.39258   0.78266  -0.12458
C          C       0.51201   0.68217   0.89809  -0.10680
C          C       0.50516   0.73654   0.88008  -0.22589
C          C       0.52214   0.76684   0.96282   0.27238
C          C       0.54669   0.74353   0.56574  -0.20774
C          C       0.55363   0.68949   0.58185  -0.11343
C          C       0.08088   0.03888   0.60921   0.02895
C          C       0.05381   0.03609   0.61525   0.02976
C          C       0.04058   0.98856   0.59779   0.00681
C          C       0.05478   0.94317   0.58302   0.03231
C          C       0.08233   0.94409   0.59793   0.02533
C          C       0.09437   0.99249   0.60538  -0.18489
C          C       0.03945   0.07764   0.64847  -0.13369
C          C       0.01325   0.07541   0.64728  -0.13292
C          C       0.99886   0.03157   0.61126   0.03229
C          C       0.01310   0.98624   0.59643   0.00731
C          C      -0.00008   0.93871   0.57855   0.03282
C          C       0.01420   0.89749   0.54336  -0.13568
C          C       0.04040   0.89963   0.54522  -0.13150
C          C       0.97130   0.03026   0.59729   0.02454
C          C       0.95936   0.98166   0.59062  -0.18363
C          C       0.97290   0.93552   0.58590   0.02530
C          C       0.95870   0.88576   0.58214   0.06589
C          C       0.93433   0.89074   0.96031  -0.13231
C          C       0.92094   0.84468   0.94864  -0.14526
C          C       0.93153   0.79042   0.56983   0.20192
C          C       0.95507   0.78508   0.69087  -0.16674
C          C       0.96841   0.83193   0.69562  -0.12241
C          C       0.86426   0.47225   0.59676  -0.19287
C          C       0.85493   0.52555   0.57765   0.08010
C          C       0.82794   0.53791   0.53532  -0.18699
C          C       0.81049   0.49740   0.51834   0.08171
C          C       0.82032   0.44426   0.54002  -0.18681
C          C       0.84720   0.43125   0.57663   0.08221
C          C       0.85740   0.37622   0.59068   0.01668
C          C       0.87271   0.56800   0.60501   0.01471
C          C       0.78212   0.50932   0.48287   0.01249
C          C       0.76970   0.55453   0.86084  -0.09838
C          C       0.74281   0.56237   0.83454  -0.16689
C          C       0.72846   0.52213   0.94364   0.19316
C          C       0.76634   0.47285   0.59201   0.04193
C          C       0.84535   0.32682   0.66916  -0.09454
C          C       0.85668   0.27642   0.68096  -0.17081
C          C       0.87967   0.27592   0.61172   0.19232
C          C       0.88031   0.37095   0.52482   0.05076
C          C       0.89515   0.55529   0.73816  -0.09917
C          C       0.91020   0.59811   0.76261  -0.17602
C          C       0.90288   0.65330   0.65062   0.18739
C          C       0.86762   0.62450   0.49640   0.04177
C          C       0.89176   0.22296   0.62469   0.03766
C          C       0.70018   0.53163   0.91781   0.03819
C          C       0.91776   0.69964   0.67823   0.04130
C          C       0.95490   0.07866   0.58318   0.06976
C          C       0.96030   0.13171   0.96973  -0.12589
C          C       0.94485   0.17762   0.95433  -0.13701
C          C       0.92274   0.17215   0.54999   0.18593
C          C       0.91665   0.11766   0.64799  -0.16921
C          C       0.93248   0.07227   0.66392  -0.12555
N          N       0.31385   0.49016   0.13357  -0.26101
N          N       0.16253   0.64681   0.17060  -0.26271
N          N       0.17210   0.30569   0.18179  -0.27124
N          N       0.14361   0.74923   0.16633  -0.26902
N          N       0.13654   0.22558   0.15186  -0.25518
N          N       0.36563   0.45631   0.15506  -0.27070
N          N       0.51527   0.82288   0.45338  -0.64139
N          N       0.53722   0.13549   0.21200  -0.63805
N          N       0.74000   0.47551   0.07411  -0.26076
N          N       0.89218   0.32383   0.02969  -0.26493
N          N       0.88062   0.66612   0.00648  -0.26951
N          N       0.91619   0.74658   0.03720  -0.25172
N          N       0.68778   0.50862   0.53775  -0.26428
N          N       0.91111   0.22166   0.03089  -0.26762
N          N       0.31419   0.49175   0.61624  -0.26250
N          N       0.16277   0.64841   0.67326  -0.26180
N          N       0.17338   0.30703   0.68400  -0.27170
N          N       0.14314   0.75085   0.66712  -0.26761
N          N       0.13735   0.22678   0.65508  -0.25335
N          N       0.36621   0.45842   0.64476  -0.26508
N          N       0.51554   0.82176   0.94599  -0.64145
N          N       0.53735   0.13734   0.71851  -0.64272
N          N       0.74058   0.47938   0.57131  -0.26071
N          N       0.89122   0.32331   0.53240  -0.26326
N          N       0.88196   0.66596   0.51620  -0.27111
N          N       0.91734   0.74604   0.54680  -0.25450
N          N       0.68700   0.50370   0.03882  -0.26850
N          N       0.90991   0.22171   0.53421  -0.26926

