data_crystal

_audit_creation_method 'AiiDA-DDEC plugin'

_cell_length_a        43.13277
_cell_length_b        34.08733
_cell_length_c         8.52029

_cell_angle_alpha     107.68364
_cell_angle_beta     82.94476
_cell_angle_gamma     90.82159

_symmetry_space_group_name_Hall 'P 1'
_symmetry_space_group_name_H-M  'P 1'

loop_
_symmetry_equiv_pos_as_xyz
 'x,y,z'

loop_
_atom_site_label
_atom_site_type_symbol
_atom_site_fract_x
_atom_site_fract_y
_atom_site_fract_z
_atom_site_charge
H          H       0.52347   0.62580   0.53483   0.11213
H          H       0.46679   0.62314   0.53035   0.11646
H          H       0.57371   0.72130   0.34582   0.11578
H          H       0.56055   0.65513   0.70467   0.09660
H          H       0.63101   0.71666   0.34300   0.12320
H          H       0.61772   0.65188   0.70674   0.11988
H          H       0.41505   0.74058   0.66718   0.11754
H          H       0.35821   0.73313   0.65845   0.12572
H          H       0.37455   0.61290   0.30080   0.12006
H          H       0.43100   0.61937   0.31796   0.11061
H          H       0.27329   0.96687   0.35652   0.10687
H          H       0.29957   0.90144   0.34110   0.11639
H          H       0.18621   0.92322   0.53692   0.11916
H          H       0.21279   0.85760   0.52272   0.11199
H          H       0.25031   0.76730   0.69943   0.10522
H          H       0.27719   0.70238   0.68791   0.12133
H          H       0.31861   0.78305   0.31270   0.11837
H          H       0.34495   0.71685   0.29550   0.12257
H          H       0.24703   0.82758   0.62070   0.06488
H          H       0.06688   0.24316   0.70745   0.11649
H          H       0.12409   0.23463   0.68683   0.12690
H          H       0.06075   0.11569   0.42451   0.11154
H          H       0.11776   0.10784   0.39347   0.12073
H          H       0.14880   0.21486   0.32542   0.12112
H          H       0.17703   0.27892   0.31859   0.11809
H          H       0.23417   0.26236   0.67438   0.10780
H          H       0.23943   0.32289   0.60119   0.06341
H          H       0.19565   0.39829   0.34472   0.11446
H          H       0.22090   0.46461   0.35504   0.10766
H          H       0.27582   0.35749   0.51208   0.11262
H          H       0.30115   0.42419   0.52339   0.11809
H          H       0.24040   0.52042   0.44210   0.05885
H          H       0.24208   0.58867   0.42421   0.10434
H          H       0.26943   0.65272   0.43215   0.11232
H          H       0.35240   0.60068   0.53465   0.11432
H          H       0.32537   0.53562   0.51278   0.11238
H          H       0.13757   0.10538   0.63553   0.11611
H          H       0.16540   0.03932   0.58922   0.10487
H          H       0.24370   0.07973   0.32011   0.10578
H          H       0.21577   0.14556   0.36140   0.11430
H          H       0.24562   0.01222   0.34166   0.05922
H          H       0.63812   0.60341   0.39241   0.11131
H          H       0.66080   0.53739   0.40237   0.11494
H          H       0.71447   0.66909   0.62712   0.11667
H          H       0.73777   0.60308   0.62534   0.09987
H          H       0.69196   0.41763   0.31413   0.12276
H          H       0.71804   0.35385   0.31681   0.11065
H          H       0.74765   0.48948   0.68018   0.10465
H          H       0.77420   0.42550   0.68063   0.11560
H          H       0.73811   0.53240   0.56873   0.05823
H          H       0.75105   0.23400   0.28079   0.10384
H          H       0.78097   0.17430   0.29604   0.11416
H          H       0.83522   0.25621   0.64465   0.12810
H          H       0.80609   0.31630   0.62066   0.11631
H          H       0.74044   0.30601   0.35402   0.06112
H          H       0.76644   0.16227   0.55283   0.11597
H          H       0.74498   0.09540   0.56205   0.10254
H          H       0.83672   0.03930   0.42172   0.11457
H          H       0.85839   0.10547   0.39875   0.11462
H          H       0.75073   0.02492   0.54129   0.05849
H          H       0.87087   0.20828   0.30309   0.12376
H          H       0.92739   0.21360   0.33130   0.11595
H          H       0.85567   0.16092   0.71897   0.11297
H          H       0.91209   0.16552   0.74657   0.10538
H          H       0.65083   0.75749   0.69129   0.12657
H          H       0.68385   0.81658   0.66403   0.11603
H          H       0.74707   0.73273   0.28645   0.10026
H          H       0.71426   0.67400   0.31077   0.11085
H          H       0.75734   0.80435   0.35942   0.06219
H          H       0.71921   0.92264   0.73528   0.11699
H          H       0.74676   0.98704   0.72382   0.10688
H          H       0.80609   0.91670   0.28838   0.12258
H          H       0.77857   0.85321   0.29869   0.11332
H          H       0.95812   0.13131   0.60377   0.10657
H          H       0.01407   0.12824   0.62519   0.11156
H          H       0.64504   0.59040   0.76020   0.11257
H          H       0.58894   0.58502   0.72595   0.10669
H          H       0.57204   0.53791   0.14328   0.11692
H          H       0.62834   0.54315   0.17581   0.12509
H          H       0.44011   0.63403   0.01617   0.11100
H          H       0.38315   0.64198   0.04575   0.12027
H          H       0.37629   0.51270   0.78793   0.12577
H          H       0.43341   0.50433   0.76888   0.11610
H          H       0.54237   0.61744   0.85204   0.10457
H          H       0.48678   0.61936   0.82371   0.11013
H          H       0.66414   0.49519   0.83722   0.12762
H          H       0.69301   0.43478   0.86067   0.11605
H          H       0.71951   0.57649   0.18159   0.11437
H          H       0.74920   0.51648   0.19544   0.10611
H          H       0.75816   0.44463   0.12964   0.06443
H          H       0.72526   0.32509   0.79583   0.11522
H          H       0.75216   0.26118   0.79610   0.10472
H          H       0.80723   0.33318   0.16433   0.12251
H          H       0.78080   0.39689   0.16239   0.10972
H          H       0.76073   0.21851   0.91595   0.05803
H          H       0.83923   0.21408   0.07024   0.11443
H          H       0.86247   0.14854   0.08211   0.11135
H          H       0.76098   0.14783   0.86491   0.09900
H          H       0.78462   0.08226   0.86545   0.11740
H          H       0.88183   0.09764   0.76967   0.11893
H          H       0.93908   0.09394   0.76705   0.09632
H          H       0.92662   0.03173   0.13957   0.11609
H          H       0.86929   0.03610   0.14426   0.12369
H          H       0.73358   0.58962   0.93341   0.11864
H          H       0.75468   0.65664   0.92462   0.10150
H          H       0.66285   0.71237   0.07022   0.11563
H          H       0.64149   0.64574   0.09080   0.11582
H          H       0.74868   0.72643   0.94089   0.05747
H          H       0.75287   0.76502   0.76567   0.10915
H          H       0.78033   0.82944   0.75414   0.11689
H          H       0.72108   0.89886   0.19143   0.11290
H          H       0.69363   0.83521   0.20182   0.12315
H          H       0.74084   0.94794   0.12079   0.06281
H          H       0.81484   0.93549   0.82018   0.11591
H          H       0.15131   0.14593   0.89541   0.11425
H          H       0.17776   0.21195   0.93057   0.11147
H          H       0.25566   0.16414   0.09073   0.10494
H          H       0.22888   0.09844   0.06252   0.11385
H          H       0.25672   0.23386   0.08718   0.06323
H          H       0.28493   0.27941   0.04826   0.10694
H          H       0.30916   0.34669   0.06644   0.11754
H          H       0.22372   0.39282   0.96805   0.11172
H          H       0.19904   0.32562   0.95472   0.11695
H          H       0.25877   0.42831   0.86530   0.06548
H          H       0.32256   0.47065   0.14045   0.11923
H          H       0.35143   0.53411   0.13234   0.11982
H          H       0.29303   0.55246   0.78462   0.11797
H          H       0.26520   0.48857   0.78779   0.10759
H          H       0.28829   0.60763   0.12841   0.11350
H          H       0.26166   0.67506   0.17961   0.10498
H          H       0.33437   0.70791   0.85408   0.10166
H          H       0.36120   0.64067   0.80143   0.11482
H          H       0.25899   0.74146   0.14020   0.06149
H          H       0.22892   0.78106   0.08895   0.10662
H          H       0.20223   0.84627   0.10328   0.11680
H          H       0.28885   0.89070   0.92255   0.11137
H          H       0.31579   0.82555   0.91073   0.11827
H          H       0.25437   0.92181   0.82924   0.06460
H          H       0.18432   0.96696   0.14936   0.11894
H          H       0.15752   0.03301   0.16848   0.12249
H          H       0.12758   0.13875   0.14009   0.11869
H          H       0.07104   0.13323   0.12808   0.11001
H          H       0.08463   0.00801   0.81208   0.11671
H          H       0.14167   0.01466   0.81210   0.12897
H          H       0.24995   0.98138   0.74932   0.10407
H          H       0.22299   0.04687   0.76637   0.12010
H          H       0.03392   0.12587   0.91949   0.11510
H          H       0.97721   0.12367   0.92161   0.11167
H          H       0.78594   0.07797   0.18018   0.11096
H          H       0.75262   0.01958   0.20265   0.10011
H          H       0.84820   0.99436   0.79325   0.12569
H          H       0.20702   0.19827   0.67750   0.11882
C          C       0.71800   0.61637   0.96530  -0.19480
C          C       0.72973   0.65413   0.95933  -0.11831
C          C       0.32458   0.54676   0.95471   0.17262
C          C       0.29241   0.47461   0.96146   0.04097
C          C       0.23731   0.36789   0.98341  -0.17109
C          C       0.76138   0.82996   0.85159  -0.13830
C          C       0.12618   0.04065   0.88143  -0.17750
C          C       0.09403   0.03700   0.88110  -0.11197
C          C       0.82740  -0.00047   0.88369  -0.17201
C          C       0.80894   0.96683   0.89828  -0.08586
C          C       0.33952   0.64811   0.88507  -0.18139
C          C       0.32451   0.68571   0.91351  -0.09994
C          C       0.79641   0.11106   0.91221  -0.18737
C          C       0.18887   0.18684   0.95853  -0.09408
C          C       0.23000   0.99310   0.84302  -0.11321
C          C       0.71004   0.68886   0.99044   0.03500
C          C       0.72321   0.72720   0.97706   0.05864
C          C       0.74630   0.79425   0.85993  -0.18560
C          C       0.23975   0.29790   0.00213   0.19786
C          C       0.22328   0.33056   0.97725  -0.14964
C          C       0.79899   0.18534   0.96225   0.03088
C          C       0.21898   0.96979   0.94826   0.04044
C          C       0.27566   0.86652   0.95719  -0.17297
C          C       0.98910   0.09757   0.93865  -0.13787
C          C       0.62881   0.57989   0.84625  -0.16631
C          C       0.59717   0.57703   0.82833  -0.12766
C          C       0.49582   0.59407   0.85953  -0.14025
C          C       0.68235   0.49967   0.91818  -0.18065
C          C       0.69841   0.46599   0.93065  -0.08067
C          C       0.23489   0.93096   0.93038   0.06518
C          C       0.29949   0.53454   0.86203  -0.17441
C          C       0.28376   0.49882   0.86552  -0.11411
C          C       0.21496   0.02972   0.85163  -0.16691
C          C       0.17394   0.14980   0.94050  -0.18980
C          C       0.18852   0.04394   0.96798   0.16781
C          C       0.29087   0.83042   0.95209  -0.14409
C          C       0.27465   0.79899   0.00083   0.20135
C          C       0.78342   0.14790   0.91080  -0.10969
C          C       0.78430   0.22255   0.95474   0.06327
C          C       0.27681   0.43579   0.95015   0.06404
C          C       0.92384   0.08226   0.85343  -0.12767
C          C       0.89167   0.08420   0.85370  -0.17830
C          C       0.02188   0.09914   0.93930  -0.13861
C          C       0.42252   0.53467   0.82706  -0.10975
C          C       0.39028   0.53931   0.83783  -0.18324
C          C       0.52803   0.59265   0.87393  -0.13624
C          C       0.75770   0.29070   0.88049  -0.18054
C          C       0.74288   0.32634   0.87807  -0.13808
C          C       0.97245   0.15649   0.58575  -0.13708
C          C       0.10675   0.13714   0.46758  -0.17934
C          C       0.07443   0.14173   0.48515  -0.12318
C          C       0.00483   0.15443   0.59612  -0.13939
C          C       0.87163   0.17143   0.63181  -0.16494
C          C       0.90340   0.17395   0.64625  -0.12928
C          C       0.32852   0.59812   0.50600  -0.19410
C          C       0.31334   0.56151   0.49505  -0.08927
C          C       0.70788   0.70509   0.38973  -0.17700
C          C       0.72612   0.73815   0.37614  -0.12186
C          C       0.31346   0.63185   0.47982   0.19118
C          C       0.28195   0.55686   0.46377   0.02942
C          C       0.23273   0.44189   0.39438  -0.17584
C          C       0.26274   0.44966   0.44579   0.19881
C          C       0.77631   0.02459   0.51033   0.06075
C          C       0.78712   0.91767   0.38630  -0.15675
C          C       0.12525   0.17065   0.53813   0.17177
C          C       0.05931   0.18003   0.56847   0.05329
C          C       0.02538   0.18435   0.57069   0.00208
C          C       0.83369   0.10356   0.43923  -0.18495
C          C       0.82170   0.06661   0.45135  -0.08834
C          C       0.32435   0.72832   0.38459  -0.16682
C          C       0.30972   0.76504   0.39347  -0.09686
C          C       0.78596   0.20520   0.37069  -0.18764
C          C       0.70293   0.64033   0.57579  -0.18632
C          C       0.71573   0.60324   0.57582  -0.11388
C          C       0.18308   0.26127   0.39810  -0.09207
C          C       0.78189   0.13541   0.52158  -0.19392
C          C       0.22028   0.08527   0.38819  -0.11674
C          C       0.81712   0.25156   0.56294  -0.18014
C          C       0.81421   0.13925   0.48035   0.19176
C          C       0.77760   0.95624   0.50122   0.19996
C          C       0.68039   0.71201   0.50180   0.17095
C          C       0.71737   0.77878   0.47216   0.04760
C          C       0.73642   0.81286   0.45164   0.06456
C          C       0.73808   0.92213   0.63753  -0.13809
C          C       0.74669   0.88371   0.51965   0.19059
C          C       0.77166   0.88214   0.39377  -0.16401
C          C       0.17563   0.20285   0.50456   0.16780
C          C       0.21582   0.25168   0.59570  -0.11593
C          C       0.22290   0.31409   0.50820   0.06653
C          C       0.23316   0.37386   0.43326   0.20025
C          C       0.21849   0.40474   0.38722  -0.14253
C          C       0.77662   0.27949   0.44908   0.04208
C          C       0.71491   0.52836   0.52557   0.06063
C          C       0.20619   0.05424   0.44797   0.03363
C          C       0.25980   0.94320   0.39323  -0.17145
C          C       0.07794   0.21334   0.64063  -0.11298
C          C       0.11020   0.20860   0.62884  -0.18171
C          C       0.97850   0.21967   0.51963   0.11564
C          C       0.62828   0.68278   0.52041   0.17269
C          C       0.61545   0.70326   0.42218  -0.17375
C          C       0.58324   0.70570   0.42365  -0.10591
C          C       0.56275   0.68721   0.52078   0.05853
C          C       0.57594   0.66792   0.62261  -0.12874
C          C       0.60803   0.66608   0.62454  -0.17941
C          C       0.52884   0.68668   0.51502   0.00109
C          C       0.51138   0.65267   0.52565  -0.13529
C          C       0.47794   0.71879   0.49561   0.11817
C          C       0.26336   0.38130   0.48218  -0.17161
C          C       0.27778   0.41833   0.48721  -0.15322
C          C       0.65959   0.60323   0.44683  -0.19198
C          C       0.67210   0.56651   0.45245  -0.08979
C          C       0.28582   0.71948   0.60344  -0.16883
C          C       0.27085   0.75596   0.60953  -0.11428
C          C       0.67446   0.64093   0.51184   0.18672
C          C       0.70043   0.56576   0.51858   0.03280
C          C       0.74174   0.46003   0.59668  -0.17831
C          C       0.71836   0.45816   0.49249   0.18970
C          C       0.22243   0.01507   0.41470   0.06740
C          C       0.21110   0.91810   0.49517  -0.14312
C          C       0.85979   0.18274   0.50513   0.16835
C          C       0.92433   0.18849   0.53683   0.06641
C          C       0.95813   0.18826   0.54789   0.00291
C          C       0.16056   0.09972   0.56373  -0.18807
C          C       0.17615   0.06267   0.53872  -0.09511
C          C       0.67181   0.75240   0.60201  -0.17189
C          C       0.69003   0.78524   0.58688  -0.08641
C          C       0.20040   0.21577   0.59896  -0.17124
C          C       0.28187   0.62742   0.45095  -0.18750
C          C       0.26653   0.59102   0.44544  -0.11722
C          C       0.80088   0.28508   0.55008  -0.08036
C          C       0.20476   0.12239   0.41151  -0.18442
C          C       0.76998   0.09778   0.52833  -0.11722
C          C       0.16751   0.22554   0.40163  -0.17472
C          C       0.17432   0.13007   0.49713   0.18774
C          C       0.22749   0.94965   0.44822   0.20039
C          C       0.31265   0.70527   0.48992   0.16679
C          C       0.28259   0.77949   0.50655   0.04091
C          C       0.26669   0.81804   0.52081   0.06475
C          C       0.27479   0.90678   0.38529  -0.14933
C          C       0.25849   0.87561   0.43577   0.19911
C          C       0.22613   0.88179   0.48905  -0.17387
C          C       0.80996   0.21116   0.47257   0.17072
C          C       0.76942   0.23896   0.36112  -0.11750
C          C       0.75906   0.31410   0.43490   0.07093
C          C       0.74838   0.38517   0.50006   0.19529
C          C       0.75643   0.42432   0.59931  -0.13842
C          C       0.20721   0.27540   0.49795   0.04251
C          C       0.26550   0.51892   0.45260   0.06459
C          C       0.78956   0.06300   0.49830   0.03305
C          C       0.75321   0.95782   0.62941  -0.18555
C          C       0.91187   0.20170   0.41556  -0.11119
C          C       0.88010   0.19864   0.39908  -0.16691
C          C       0.01170   0.21801   0.53366   0.12057
C          C       0.36212   0.67174   0.48436   0.16850
C          C       0.37417   0.70805   0.58491  -0.17037
C          C       0.40618   0.71228   0.58930  -0.11234
C          C       0.42725   0.67995   0.49767   0.06082
C          C       0.41507   0.64398   0.39612  -0.12560
C          C       0.38312   0.64016   0.38672  -0.17595
C          C       0.46107   0.68307   0.50621   0.00268
C          C       0.47874   0.65084   0.52073  -0.13870
C          C       0.51156   0.72045   0.49790   0.11924
C          C       0.72474   0.38329   0.39709  -0.16182
C          C       0.70996   0.41902   0.39443  -0.14906
C          C       0.33254   0.52382   0.05702  -0.17390
C          C       0.31671   0.48831   0.06062  -0.09093
C          C       0.26867   0.37418   0.01485   0.19918
C          C       0.76239   0.93941   0.03307   0.06638
C          C       0.02231   0.03354   0.98632   0.11788
C          C       0.13895   0.07764   0.97244   0.17080
C          C       0.07348   0.07055   0.96557   0.05520
C          C       0.03949   0.06786   0.96196   0.00423
C          C       0.71410   0.54565   0.10830  -0.18984
C          C       0.73049   0.51174   0.11721  -0.11907
C          C       0.79198   0.04694   0.09925  -0.17710
C          C       0.84059   0.14840   0.03089  -0.19492
C          C       0.81925   0.03992   0.98539   0.17240
C          C       0.75270   0.86843   0.96918   0.19046
C          C       0.68568   0.61229   0.00590   0.19052
C          C       0.71249   0.83435   0.10350  -0.15609
C          C       0.72195   0.79576   0.98835   0.19690
C          C       0.18761   0.11733   0.98169   0.19231
C          C       0.23265   0.16024   0.04852  -0.11769
C          C       0.23456   0.23181   0.03378   0.06535
C          C       0.74005   0.43657   0.04553   0.06708
C          C       0.08644   0.10738   0.05560  -0.12366
C          C       0.11846   0.11068   0.06217  -0.17702
C          C       0.64015   0.56875   0.97459   0.16767
C          C       0.57583   0.56257   0.93629   0.06618
C          C       0.58782   0.54972   0.05982  -0.11271
C          C       0.61946   0.55290   0.07916  -0.16840
C          C       0.54220   0.56215   0.92059   0.00080
C          C       0.52171   0.53130   0.95334   0.12124
C          C       0.27123   0.30412   0.03192  -0.17435
C          C       0.28510   0.34160   0.04080  -0.14729
C          C       0.29823   0.62949   0.06764  -0.18189
C          C       0.28336   0.66732   0.09550  -0.11469
C          C       0.68978   0.53999   0.00841   0.17249
C          C       0.72280   0.47132   0.03071   0.04196
C          C       0.77429   0.36738   0.08187  -0.16227
C          C       0.75074   0.36547   0.97834   0.19631
C          C       0.22708   0.84125   0.06037  -0.14903
C          C       0.88469   0.04897   0.06252  -0.17271
C          C       0.91696   0.04662   0.05977  -0.10763
C          C       0.98856   0.03218   0.98808   0.12032
C          C       0.87158   0.06863   0.96239   0.17371
C          C       0.93732   0.06422   0.95846   0.05874
C          C       0.97135   0.06480   0.96163   0.00076
C          C       0.17768   0.02134   0.07637  -0.16921
C          C       0.19258   0.98467   0.06642  -0.09539
C          C       0.66615   0.64797   0.04994  -0.18418
C          C       0.67798   0.68511   0.03905  -0.09010
C          C       0.21768   0.12311   0.03265  -0.19019
C          C       0.82779   0.18486   0.02419  -0.08879
C          C       0.77342   0.01406   0.11178  -0.12166
C          C       0.24329   0.87258   0.01062   0.19633
C          C       0.32681   0.61952   0.96397   0.18408
C          C       0.29626   0.69637   0.02049   0.03563
C          C       0.28070   0.73604   0.05348   0.06848
C          C       0.24226   0.80504   0.05366  -0.17178
C          C       0.82537   0.11065   0.97174   0.18794
C          C       0.78097   0.29263   0.98518   0.19212
C          C       0.78922   0.33175   0.08406  -0.15065
C          C       0.21855   0.19318   0.01403   0.03110
C          C       0.78167   0.97344   0.01365   0.04662
C          C       0.72785   0.86995   0.09571  -0.16235
C          C       0.37535   0.57796   0.91844   0.17456
C          C       0.39403   0.61207   0.97938  -0.18543
C          C       0.42631   0.60745   0.96244  -0.12122
C          C       0.44130   0.56864   0.88960   0.04645
C          C       0.47514   0.56477   0.89002   0.00540
C          C       0.48864   0.53239   0.93618   0.11554
S          S       0.49431   0.78398   0.46792   0.43043
S          S       0.00168   0.27879   0.46117   0.43023
S          S       0.49822   0.47383   0.02422   0.43048
S          S       0.00556   0.97075   0.03682   0.42820
N          N       0.77043   0.90170   0.94998  -0.29713
N          N       0.73420   0.39899   0.96417  -0.29966
N          N       0.29173   0.76302   0.98310  -0.30490
N          N       0.22337   0.26157   0.99063  -0.30557
N          N       0.27937   0.48579   0.45668  -0.30497
N          N       0.79288   0.99122   0.48193  -0.29364
N          N       0.72893   0.85048   0.53893  -0.29686
N          N       0.76514   0.35178   0.51389  -0.29961
N          N       0.15836   0.16730   0.51471  -0.12535
N          N       0.32919   0.66848   0.48179  -0.12500
N          N       0.46540   0.75325   0.47812  -0.35867
N          N       0.70236   0.49249   0.48096  -0.29978
N          N       0.21036   0.98578   0.46861  -0.30855
N          N       0.27549   0.84002   0.42388  -0.29242
N          N       0.21696   0.33734   0.41985  -0.29139
N          N       0.82750   0.17738   0.48357  -0.12430
N          N       0.66110   0.67853   0.51330  -0.12653
N          N       0.52360   0.75639   0.48398  -0.35756
N          N       0.96996   0.25318   0.47937  -0.35489
N          N       0.02745   0.25008   0.50232  -0.35929
N          N       0.28463   0.41083   0.02763  -0.28828
N          N       0.70675   0.76081   0.00887  -0.29180
N          N       0.79707   0.25831   0.99566  -0.30176
N          N       0.17180   0.08048   0.97474  -0.12668
N          N       0.34234   0.58169   0.94246  -0.12718
N          N       0.22624   0.90829   0.02456  -0.29035
N          N       0.83869   0.07321   0.97219  -0.13042
N          N       0.67235   0.57397  -0.00114  -0.12589
N          N       0.47271   0.50126   0.97440  -0.35706
N          N       0.53001   0.49900   0.00210  -0.35788
N          N       0.97634   0.99757   0.01503  -0.35676
N          N       0.03469   0.00022   0.01371  -0.35943

