data_crystal

_audit_creation_method 'AiiDA-DDEC plugin'

_cell_length_a        30.33892
_cell_length_b        30.19336
_cell_length_c         7.93634

_cell_angle_alpha     98.18856
_cell_angle_beta     113.83119
_cell_angle_gamma     120.33772

_symmetry_space_group_name_Hall 'P 1'
_symmetry_space_group_name_H-M  'P 1'

loop_
_symmetry_equiv_pos_as_xyz
 'x,y,z'

loop_
_atom_site_label
_atom_site_type_symbol
_atom_site_fract_x
_atom_site_fract_y
_atom_site_fract_z
_atom_site_charge
H          H       0.45611   0.68222   0.01804   0.10162
H          H       0.32136   0.77558   0.98520   0.10208
H          H       0.22879   0.55118   0.02581   0.10283
H          H       0.54893   0.32684  -0.00042   0.10103
H          H       0.67681   0.22794   0.99423   0.10101
H          H       0.77575   0.45662   0.98890   0.10313
H          H       0.51089   0.66363   0.00526   0.12523
H          H       0.33628   0.84752   0.96805   0.12485
H          H       0.14952   0.49127   0.00257   0.12795
H          H       0.49504   0.34596   0.02059   0.12395
H          H       0.66041   0.15449   0.00075   0.12407
H          H       0.85424   0.51594   0.00910   0.12921
H          H       0.57538   0.63608   0.00872   0.12825
H          H       0.36413   0.93975   0.96715   0.13396
H          H       0.05385   0.42616   0.98520   0.12959
H          H       0.43056   0.37333   0.01801   0.12988
H          H       0.63135   0.06145  -0.00350   0.13294
H          H       0.95063   0.58171   0.03181   0.12965
H          H       0.38788   0.50451   0.00176   0.14674
H          H       0.49773   0.88697   0.99181   0.15046
H          H       0.12409   0.62026   0.04128   0.15243
H          H       0.61775   0.50533   0.02393   0.14650
H          H       0.49876   0.11520   0.97551   0.15087
H          H       0.88133   0.38798   0.97939   0.15258
H          H       0.63616   0.43680   0.01478   0.27729
H          H       0.56754   0.20396   0.98056   0.27751
H          H       0.79628   0.37044   0.98685   0.27341
H          H       0.36946   0.57307   0.00870   0.27660
H          H       0.43075   0.79945  -0.00010   0.27553
H          H       0.20720   0.63657   0.02332   0.27513
H          H       0.45318   0.67485   0.51444   0.10163
H          H       0.32102   0.77068   0.49458   0.10198
H          H       0.22538   0.54499   0.52049   0.10372
H          H       0.54561   0.31926   0.49330   0.10159
H          H       0.67676   0.22300   0.50213   0.10209
H          H       0.77243   0.45006   0.48357   0.10169
H          H       0.50850   0.65673   0.50525   0.12447
H          H       0.33339   0.84107   0.46426   0.12468
H          H       0.14655   0.48573   0.49703   0.12510
H          H       0.49258   0.33886   0.51712   0.12328
H          H       0.65891   0.14833   0.50283   0.12454
H          H       0.85126   0.50981   0.50685   0.12875
H          H       0.57295   0.62942   0.50773   0.12882
H          H       0.36143   0.93337   0.46241   0.13380
H          H       0.05127   0.42068   0.48092   0.12902
H          H       0.42748   0.36583   0.51119   0.12874
H          H       0.62921   0.05491   0.49591   0.13325
H          H       0.94796   0.57618   0.53229   0.12852
H          H       0.38533   0.49719   0.49943   0.14637
H          H       0.49614   0.88126   0.49694   0.15082
H          H       0.11970   0.61378   0.52804   0.15125
H          H       0.61655   0.49911   0.52843   0.14669
H          H       0.49768   0.10967   0.47970   0.15043
H          H       0.87757   0.38138   0.46743   0.15078
H          H       0.63484   0.43033   0.51865   0.27733
H          H       0.56623   0.19805   0.48112   0.27588
H          H       0.79267   0.36361   0.47701   0.27431
H          H       0.36732   0.56636   0.51011   0.27614
H          H       0.42935   0.79412   0.50205   0.27596
H          H       0.20427   0.63073   0.51613   0.27573
C          C       0.67988   0.39131   0.99528   0.34850
C          C       0.61139   0.29428   0.98240   0.35836
C          C       0.70717   0.32412   0.98840   0.35535
C          C       0.32453   0.61687   0.01813   0.35042
C          C       0.39075   0.71253   0.01932   0.35571
C          C       0.29494   0.68220   0.01383   0.35273
C          C       0.62628   0.34912   0.99065  -0.24235
C          C       0.65300   0.28323   0.98467  -0.24499
C          C       0.71905   0.37737   0.98952  -0.24844
C          C       0.37774   0.65909   0.02129  -0.23769
C          C       0.34786   0.72244   0.01032  -0.24124
C          C       0.28448   0.62994   0.01974  -0.24528
C          C       0.58775   0.35991   0.00065   0.11948
C          C       0.64341   0.23331   0.98789   0.12422
C          C       0.76923   0.41771   0.98910   0.11208
C          C       0.41745   0.64923   0.01775   0.11490
C          C       0.35531   0.77068   0.99472   0.12196
C          C       0.23481   0.58975   0.02306   0.11119
C          C       0.56079   0.42397   0.02019   0.21411
C          C       0.58116   0.14108   0.98931   0.21889
C          C       0.86156   0.44727   0.99298   0.22400
C          C       0.44508   0.58567   0.00523   0.21474
C          C       0.41547   0.86104   0.97927   0.21776
C          C       0.14283   0.56033   0.02190   0.21724
C          C       0.50718   0.38639   0.01859  -0.17041
C          C       0.61929   0.12575  -0.00293  -0.17100
C          C       0.88124   0.50257   0.00616  -0.16823
C          C       0.49875   0.62323   0.00739  -0.17531
C          C       0.37705   0.87613   0.96983  -0.16999
C          C       0.12298   0.50495   0.00797  -0.16711
C          C       0.48573   0.45400   0.01464   0.16070
C          C       0.54952   0.03526   0.98761   0.14974
C          C       0.97101   0.52297   0.01608   0.15354
C          C       0.51989   0.55548   0.01140   0.15870
C          C       0.44600   0.96617   0.97516   0.15366
C          C       0.03402   0.48517   0.00288   0.15726
C          C       0.54067   0.49243   0.02062   0.17490
C          C       0.51135   0.05109   0.98196   0.17334
C          C       0.95051   0.46665  -0.00060   0.17176
C          C       0.46494   0.51706   0.00531   0.17201
C          C       0.48428   0.95041   0.98137   0.17048
C          C       0.05460   0.54151   0.01995   0.16948
C          C       0.47108   0.40116   0.01690  -0.13083
C          C       0.60353   0.07425   0.99448  -0.13002
C          C       0.93460   0.53930   0.01940  -0.12806
C          C       0.53478   0.60838   0.00939  -0.13123
C          C       0.39216   0.92720   0.96945  -0.12639
C          C       0.07006   0.46859  -0.00243  -0.12962
C          C       0.57741   0.47629   0.02414  -0.25794
C          C       0.52836   0.10429   0.98230  -0.25521
C          C       0.89567   0.42987   0.98929  -0.25129
C          C       0.42828   0.53333   0.00150  -0.25846
C          C       0.46782   0.89757   0.98367  -0.25223
C          C       0.10937   0.57816   0.02939  -0.24687
C          C       0.67743   0.38470   0.49443   0.34961
C          C       0.60887   0.28730   0.47853   0.35758
C          C       0.70478   0.31771   0.48463   0.35649
C          C       0.32212   0.61064   0.51791   0.35108
C          C       0.38864   0.70613   0.51824   0.35624
C          C       0.29308   0.67649   0.51358   0.35403
C          C       0.62367   0.34216   0.48819  -0.24237
C          C       0.65123   0.27692   0.48425  -0.24147
C          C       0.71624   0.37077   0.48540  -0.24919
C          C       0.37543   0.65258   0.52067  -0.23791
C          C       0.34642   0.71666   0.51248  -0.24472
C          C       0.28197   0.62390   0.51773  -0.25057
C          C       0.58497   0.35275   0.49772   0.11696
C          C       0.64265   0.22770   0.49233   0.12090
C          C       0.76600   0.41114   0.48303   0.11374
C          C       0.41476   0.64222   0.51612   0.11624
C          C       0.35443   0.76538   0.50061   0.12070
C          C       0.23172   0.58370   0.51818   0.11260
C          C       0.55886   0.41734   0.52059   0.21379
C          C       0.58010   0.13538   0.49375   0.21741
C          C       0.85819   0.44090   0.48589   0.21891
C          C       0.44258   0.57869   0.50464   0.21439
C          C       0.41380   0.85543   0.48314   0.21971
C          C       0.13944   0.55449   0.51416   0.22162
C          C       0.50479   0.37939   0.51602  -0.17192
C          C       0.61786   0.11968   0.49971  -0.16977
C          C       0.87824   0.49652   0.50272  -0.16692
C          C       0.49626   0.61625   0.50673  -0.17358
C          C       0.37477   0.87004   0.46973  -0.16888
C          C       0.11996   0.49936   0.50232  -0.16696
C          C       0.48341   0.44704   0.51221   0.15896
C          C       0.54777   0.02920   0.48957   0.15135
C          C       0.96798   0.51721   0.51142   0.15464
C          C       0.51776   0.54874   0.51092   0.16117
C          C       0.44413   0.96024   0.47670   0.15221
C          C       0.03096   0.47943   0.49696   0.15804
C          C       0.53878   0.48585   0.52099   0.17308
C          C       0.50977   0.04523   0.48448   0.16923
C          C       0.94733   0.46073   0.49287   0.16986
C          C       0.46264   0.51016   0.50378   0.17367
C          C       0.48249   0.94453   0.48400   0.17435
C          C       0.05125   0.53563   0.51273   0.16559
C          C       0.46845   0.39398   0.51278  -0.13136
C          C       0.60176   0.06802   0.49574  -0.12507
C          C       0.93173   0.53354   0.51707  -0.12915
C          C       0.53241   0.60155   0.50860  -0.12859
C          C       0.38991   0.92109   0.46852  -0.13156
C          C       0.06716   0.46297   0.49239  -0.12703
C          C       0.57580   0.46988   0.52635  -0.25811
C          C       0.52716   0.09863   0.48613  -0.25133
C          C       0.89217   0.42353   0.48046  -0.24419
C          C       0.42586   0.52630   0.50026  -0.25705
C          C       0.46618   0.89190   0.48781  -0.25541
C          C       0.10559   0.57207   0.51959  -0.24706
N          N       0.59672   0.40883   0.01235  -0.22481
N          N       0.59534   0.19251   0.98506  -0.23112
N          N       0.80866   0.40984   0.98682  -0.23143
N          N       0.40923   0.60093   0.01204  -0.22435
N          N       0.40216   0.81042   0.98970  -0.22892
N          N       0.19529   0.59745   0.02516  -0.22615
N          N       0.44850   0.46647   0.00752  -0.30031
N          N       0.53588   0.98542   0.98717  -0.30822
N          N       0.02263   0.55984   0.02650  -0.30879
N          N       0.55712   0.54302   0.01857  -0.30278
N          N       0.45957   0.01596   0.97526  -0.30781
N          N       0.98255   0.44836   0.99328  -0.31238
N          N       0.59472   0.40214   0.51298  -0.22665
N          N       0.59464   0.18693   0.49027  -0.22819
N          N       0.80516   0.40319   0.47863  -0.22692
N          N       0.40672   0.59402   0.51166  -0.22173
N          N       0.40108   0.80512   0.49531  -0.22915
N          N       0.19201   0.59151   0.51801  -0.23150
N          N       0.44603   0.45940   0.50433  -0.30085
N          N       0.53406   0.97939   0.48935  -0.30782
N          N       0.01945   0.55406   0.52088  -0.31040
N          N       0.55524   0.53649   0.51931  -0.30328
N          N       0.45786   0.01011   0.47695  -0.30894
N          N       0.97949   0.44257   0.48712  -0.30950
O          O       0.69264   0.43910   0.00525  -0.47075
O          O       0.56413   0.25811   0.97756  -0.46762
O          O       0.74304   0.31350   0.99207  -0.47193
O          O       0.31308   0.56987   0.01459  -0.47090
O          O       0.43747   0.74846   0.02101  -0.46749
O          O       0.25898   0.69264   0.01047  -0.46843
O          O       0.69053   0.43281   0.50733  -0.47043
O          O       0.56114   0.25049   0.47027  -0.46538
O          O       0.74018   0.30685   0.48440  -0.46911
O          O       0.31047   0.56365   0.51488  -0.47106
O          O       0.43495   0.74158   0.51719  -0.46768
O          O       0.25699   0.68702   0.50808  -0.47176

