data_crystal

_audit_creation_method 'AiiDA-DDEC plugin'

_cell_length_a        37.19183
_cell_length_b        37.24769
_cell_length_c         8.88412

_cell_angle_alpha     88.13093
_cell_angle_beta     91.17632
_cell_angle_gamma     120.12859

_symmetry_space_group_name_Hall 'P 1'
_symmetry_space_group_name_H-M  'P 1'

loop_
_symmetry_equiv_pos_as_xyz
 'x,y,z'

loop_
_atom_site_label
_atom_site_type_symbol
_atom_site_fract_x
_atom_site_fract_y
_atom_site_fract_z
_atom_site_charge
B          B       0.69766   0.37721   0.01168   0.72566
B          B       0.62561   0.32219   0.00658   0.72481
B          B       0.68070   0.30551   0.00639   0.72568
B          B       0.30538   0.62580   0.97514   0.72612
B          B       0.37723   0.68094   0.97357   0.72557
B          B       0.32224   0.69762   0.97305   0.72576
B          B       0.69525   0.37769   0.48366   0.72464
B          B       0.62375   0.32193   0.47886   0.72333
B          B       0.67950   0.30625   0.48432   0.72490
B          B       0.30467   0.62528   0.48903   0.72564
B          B       0.37612   0.68117   0.49201   0.72412
B          B       0.32022   0.69666   0.48847   0.72465
H          H       0.68081   0.43656   0.09857   0.11176
H          H       0.56372   0.24361   0.07709   0.11305
H          H       0.75744   0.32086   0.09931   0.11231
H          H       0.32203   0.56513   0.06803   0.11291
H          H       0.43637   0.75671   0.06960   0.11180
H          H       0.24606   0.67977   0.06739   0.11236
H          H       0.78554   0.42213   0.99521   0.11160
H          H       0.58207   0.36647   0.99349   0.11157
H          H       0.63664   0.21807   0.98893   0.11213
H          H       0.21770   0.58188   0.96105   0.11190
H          H       0.42214   0.63827   0.96174   0.11181
H          H       0.36508   0.78572   0.95324   0.11115
H          H       0.80512   0.53342   0.20219   0.12006
H          H       0.46690   0.26996   0.18074   0.12057
H          H       0.72837   0.19550   0.20409   0.11962
H          H       0.19792   0.46939   0.18574   0.12017
H          H       0.53163   0.72787   0.19589   0.11993
H          H       0.27417   0.80257   0.18320   0.11953
H          H       0.85687   0.49009   0.98346   0.09003
H          H       0.51276   0.36947   0.97419   0.08544
H          H       0.63290   0.14606   0.97657   0.08960
H          H       0.14524   0.51268   0.95699   0.08399
H          H       0.49053   0.63519   0.96387   0.08906
H          H       0.36835   0.85741   0.95123   0.08740
H          H       0.91609   0.55364   0.51316   0.26790
H          H       0.44448   0.36111   0.50434   0.26754
H          H       0.63626   0.08552   0.50974   0.26862
H          H       0.08407   0.44777   0.51646   0.26992
H          H       0.55185   0.63638   0.51613   0.26950
H          H       0.36317   0.91655   0.49332   0.26833
H          H       0.98293   0.53977   0.15817   0.12951
H          H       0.45968   0.43946   0.14471   0.12865
H          H       0.55712   0.01798   0.13812   0.13022
H          H       0.01899   0.46193   0.13148   0.13088
H          H       0.53903   0.55711   0.14902   0.13008
H          H       0.44070   0.98097   0.13148   0.12979
H          H       0.07032   0.69272   0.11927   0.13162
H          H       0.30647   0.37353   0.12150   0.13193
H          H       0.62545   0.93310   0.14234   0.13212
H          H       0.93479   0.30847   0.16085   0.13197
H          H       0.69250   0.62495   0.14359   0.13179
H          H       0.37236   0.06581   0.10865   0.13187
H          H       0.13631   0.67666   0.25935   0.27118
H          H       0.32058   0.45337   0.25341   0.27342
H          H       0.54417   0.86539   0.26171   0.27165
H          H       0.86708   0.32059   0.27413   0.27193
H          H       0.67798   0.54337   0.26952   0.27502
H          H       0.45280   0.13206   0.23941   0.27026
H          H       0.20655   0.73215   0.29181   0.09495
H          H       0.26860   0.47042   0.29202   0.09669
H          H       0.52801   0.79526   0.30322   0.09629
H          H       0.79776   0.26670   0.31826   0.09605
H          H       0.73377   0.52996   0.31001   0.09509
H          H       0.46736   0.19967   0.28090   0.09491
H          H       0.93308   0.64854   0.21488   0.06635
H          H       0.34917   0.27842   0.21011   0.06979
H          H       0.71863   0.07018   0.23495   0.06660
H          H       0.07263   0.35135   0.24090   0.06961
H          H       0.65215   0.72058   0.22694   0.06873
H          H       0.27781   0.92724   0.18739   0.07039
H          H       0.94168   0.63364   0.54221   0.07547
H          H       0.36378   0.30519   0.54599   0.07606
H          H       0.69236   0.06180   0.55940   0.07737
H          H       0.05475   0.36358   0.53525   0.07418
H          H       0.63398   0.69207   0.53292   0.07679
H          H       0.30725   0.94194   0.51500   0.07564
H          H       0.93308   0.69547   0.47024   0.12642
H          H       0.30261   0.23364   0.49261   0.12761
H          H       0.76558   0.07667   0.51924   0.12685
H          H       0.07018   0.30540   0.50425   0.12662
H          H       0.69190   0.76607   0.49000   0.12676
H          H       0.23421   0.92852   0.46014   0.12813
H          H       0.98357   0.70420   0.42949   0.13666
H          H       0.29213   0.27418   0.44342   0.13605
H          H       0.72774   0.02530   0.46790   0.13628
H          H       0.01690   0.28908   0.46917   0.13476
H          H       0.70745   0.72940   0.44708   0.13584
H          H       0.27342   0.98017   0.41169   0.13552
H          H       0.97113   0.72387   0.11627   0.12707
H          H       0.27381   0.24477   0.11640   0.12709
H          H       0.75301   0.03000   0.14465   0.12774
H          H       0.02813   0.27683   0.14967   0.12559
H          H       0.72548   0.74995   0.11916   0.12789
H          H       0.24507   0.96949   0.08453   0.12629
H          H       0.11107   0.60271   0.22250   0.07403
H          H       0.39795   0.50154   0.23854   0.07649
H          H       0.49500   0.89136   0.21369   0.07551
H          H       0.89108   0.39499   0.21656   0.07524
H          H       0.60363   0.49337   0.21975   0.07467
H          H       0.50204   0.10537   0.22192   0.07751
H          H       0.11811   0.57432   0.07985   0.06371
H          H       0.41400   0.53302   0.06988   0.06646
H          H       0.46129   0.88111   0.05542   0.06306
H          H       0.88050   0.41880   0.05799   0.06523
H          H       0.57592   0.45870   0.07215   0.06243
H          H       0.53405   0.12019   0.05840   0.06541
H          H       0.07580   0.50846   0.23701   0.11758
H          H       0.48802   0.56933   0.17221   0.11581
H          H       0.43168   0.92101   0.18168   0.11455
H          H       0.92069   0.48801   0.19023   0.11522
H          H       0.53799   0.46925   0.36261   0.14351
H          H       0.56870   0.08139   0.17319   0.11449
H          H       0.06795   0.53794   0.37396   0.14232
H          H       0.46979   0.53770   0.33967   0.14084
H          H       0.46683   0.93078   0.33572   0.14246
H          H       0.92980   0.46181   0.34546   0.14265
H          H       0.54804   0.42817   0.33001   0.12016
H          H       0.53687   0.06932   0.33592   0.14127
H          H       0.11865   0.54600   0.34128   0.12081
H          H       0.45387   0.57466   0.29294   0.12324
H          H       0.42638   0.87921   0.29824   0.12097
H          H       0.87842   0.45088   0.30033   0.12308
H          H       0.50961   0.43205   0.22124   0.11577
H          H       0.57463   0.12180   0.28879   0.12121
H          H       0.67733   0.43595   0.57376   0.11156
H          H       0.56413   0.24346   0.55866   0.11262
H          H       0.75614   0.32352   0.58058   0.11306
H          H       0.32288   0.56570   0.58088   0.11325
H          H       0.43552   0.75791   0.58166   0.11220
H          H       0.24245   0.67822   0.56868   0.11335
H          H       0.78312   0.42341   0.46895   0.11189
H          H       0.57850   0.36438   0.46671   0.11160
H          H       0.63739   0.21868   0.46507   0.11239
H          H       0.21675   0.57967   0.47601   0.11152
H          H       0.42156   0.63930   0.47793   0.11281
H          H       0.36257   0.78443   0.46798   0.11223
H          H       0.80070   0.53131   0.69614   0.11993
H          H       0.46769   0.26857   0.68168   0.11927
H          H       0.72888   0.19940   0.69986   0.11982
H          H       0.19977   0.46789   0.69829   0.11999
H          H       0.53293   0.73125   0.69598   0.12040
H          H       0.26891   0.80095   0.67771   0.11961
H          H       0.85454   0.49187   0.46901   0.08749
H          H       0.50904   0.36645   0.46426   0.08579
H          H       0.63520   0.14733   0.46297   0.08704
H          H       0.14534   0.51009   0.47104   0.08622
H          H       0.49063   0.63727   0.47118   0.08857
H          H       0.36486   0.85571   0.45605   0.08762
H          H       0.91885   0.55207   0.01836   0.26899
H          H       0.44799   0.36494   0.00685   0.27005
H          H       0.63354   0.08356   0.01538   0.27036
H          H       0.08355   0.45051   0.00861   0.26855
H          H       0.55313   0.63570   0.01173   0.26817
H          H       0.36646   0.91807   0.99209   0.26896
H          H       0.97829   0.53859   0.66693   0.12934
H          H       0.45827   0.43665   0.63912   0.12951
H          H       0.55852   0.02014   0.64028   0.12964
H          H       0.02097   0.45968   0.65507   0.13056
H          H       0.53942   0.56065   0.66459   0.12741
H          H       0.43852   0.97922   0.63705   0.12989
H          H       0.06564   0.69137   0.61753   0.13153
H          H       0.30499   0.37071   0.63096   0.13228
H          H       0.62780   0.93623   0.63893   0.13280
H          H       0.93362   0.30664   0.64373   0.13180
H          H       0.69210   0.62618   0.62255   0.13225
H          H       0.37234   0.06596   0.60004   0.13224
H          H       0.13272   0.67649   0.75076   0.27327
H          H       0.32328   0.45435   0.75847   0.27055
H          H       0.54569   0.86791   0.75815   0.27272
H          H       0.86631   0.32266   0.77180   0.27749
H          H       0.67664   0.54364   0.76264   0.27366
H          H       0.45377   0.13149   0.73857   0.27203
H          H       0.20106   0.73001   0.78362   0.09709
H          H       0.27327   0.47264   0.80733   0.09407
H          H       0.52791   0.79856   0.80560   0.09559
H          H       0.79647   0.27157   0.81391   0.09539
H          H       0.72940   0.52685   0.80203   0.09686
H          H       0.46958   0.19955   0.77901   0.09544
H          H       0.92976   0.65338   0.70261   0.06806
H          H       0.34574   0.27406   0.71448   0.06909
H          H       0.72052   0.07305   0.73302   0.06803
H          H       0.07279   0.35187   0.70763   0.06953
H          H       0.64844   0.71977   0.70453   0.06685
H          H       0.27697   0.92774   0.68266   0.06827
H          H       0.94428   0.63360   0.04081   0.07788
H          H       0.36497   0.30761   0.03653   0.07757
H          H       0.69043   0.05876   0.06147   0.07626
H          H       0.05970   0.36903   0.07043   0.07795
H          H       0.63233   0.69052   0.06181   0.07602
H          H       0.30891   0.94224   0.02160   0.07775
H          H       0.92779   0.69150   0.00130   0.12682
H          H       0.30526   0.23436  -0.00240   0.12704
H          H       0.76387   0.07323   0.02397   0.12705
H          H       0.07009   0.30811   0.02619   0.12799
H          H       0.69345   0.76198   0.00181   0.12751
H          H       0.23659   0.92891   0.96309   0.12751
H          H       0.97900   0.70628   0.94220   0.13609
H          H       0.29244   0.27298   0.94199   0.13506
H          H       0.72568   0.02220   0.97030   0.13622
H          H       0.01899   0.29732   0.97792   0.13670
H          H       0.70246   0.72120   0.95301   0.13763
H          H       0.27559   0.98095   0.91850   0.13554
H          H       0.97557   0.72673   0.59050   0.12811
H          H       0.27135   0.24402   0.61251   0.12752
H          H       0.75575   0.03391   0.64084   0.12757
H          H       0.03228   0.27516   0.64292   0.12757
H          H       0.72395   0.75700   0.61832   0.12846
H          H       0.24402   0.96986   0.57991   0.12786
H          H       0.10328   0.59975   0.75440   0.07855
H          H       0.40075   0.50089   0.73947   0.07954
H          H       0.49752   0.89578   0.72867   0.07773
H          H       0.89866   0.40047   0.75672   0.07799
H          H       0.59875   0.49740   0.76218   0.07779
H          H       0.50126   0.10266   0.73081   0.07739
H          H       0.11716   0.58675   0.58117   0.06362
H          H       0.40809   0.52629   0.55893   0.06676
H          H       0.46754   0.88151   0.55882   0.06431
H          H       0.88107   0.40965   0.57832   0.06525
H          H       0.58589   0.46874   0.59267   0.06359
H          H       0.53058   0.11905   0.56027   0.06512
H          H       0.08464   0.51212   0.67692   0.11740
H          H       0.48524   0.56840   0.61558   0.11609
H          H       0.42935   0.91710   0.65214   0.11591
H          H       0.91534   0.48601   0.63976   0.11764
H          H       0.51085   0.42804   0.67743   0.11778
H          H       0.56967   0.08305   0.65486   0.11548
H          H       0.07203   0.52672   0.84883   0.13870
H          H       0.47603   0.54387   0.79758   0.14011
H          H       0.46011   0.93010   0.82019   0.14071
H          H       0.92990   0.47455   0.81976   0.13897
H          H       0.52496   0.45758   0.84493   0.14097
H          H       0.54048   0.06886   0.82509   0.13996
H          H       0.12501   0.54662   0.79693   0.11998
H          H       0.45564   0.57699   0.74818   0.12405
H          H       0.42433   0.87719   0.77878   0.11978
H          H       0.87642   0.45415   0.77161   0.12284
H          H       0.54440   0.42347   0.81081   0.11849
H          H       0.57578   0.12210   0.77791   0.12223
C          C       0.74084   0.48775   0.15609   0.06788
C          C       0.51245   0.25185   0.13405   0.06982
C          C       0.74767   0.26019   0.15873   0.06944
C          C       0.26202   0.51432   0.13271   0.06821
C          C       0.48673   0.74711   0.13974   0.06876
C          C       0.25532   0.73903   0.13236   0.06902
C          C       0.71412   0.44824   0.09889  -0.08520
C          C       0.55266   0.26563   0.08028  -0.08367
C          C       0.73528   0.28770   0.09894  -0.08398
C          C       0.28880   0.55388   0.06964  -0.08589
C          C       0.44788   0.73501   0.07282  -0.08716
C          C       0.26775   0.71304   0.06812  -0.08705
C          C       0.72946   0.42330   0.04638  -0.24448
C          C       0.57899   0.30731   0.03533  -0.24461
C          C       0.69482   0.27323   0.04254  -0.24650
C          C       0.27357   0.57944   0.01312  -0.24455
C          C       0.42329   0.69517   0.01431  -0.24562
C          C       0.30789   0.72908   0.00930  -0.24409
C          C       0.77289   0.44029   0.04081  -0.09069
C          C       0.56277   0.33439   0.03303  -0.09080
C          C       0.66770   0.22996   0.03650  -0.09105
C          C       0.23018   0.56312   0.00958  -0.09033
C          C       0.44011   0.66868   0.01179  -0.08902
C          C       0.33439   0.77255   0.00349  -0.09135
C          C       0.80017   0.48010   0.09537   0.06011
C          C       0.52222   0.32080   0.08347   0.06369
C          C       0.67992   0.20193   0.09293   0.06088
C          C       0.20288   0.52333   0.07045   0.06268
C          C       0.47942   0.68069   0.07510   0.06061
C          C       0.32200   0.79907   0.06395   0.06242
C          C       0.78366   0.50280   0.15927  -0.14359
C          C       0.49808   0.27994   0.14079  -0.14299
C          C       0.71940   0.21754   0.16026  -0.14487
C          C       0.21938   0.50001   0.13817  -0.14372
C          C       0.50151   0.71921   0.14563  -0.14644
C          C       0.28311   0.78172   0.13497  -0.14543
C          C       0.84530   0.49940   0.07867   0.01106
C          C       0.50298   0.34679   0.06840   0.01217
C          C       0.65392   0.15697   0.07424   0.00972
C          C       0.15761   0.50430   0.05671   0.01264
C          C       0.49910   0.65530   0.06134   0.01230
C          C       0.34719   0.84434   0.04748   0.01069
C          C       0.94014   0.57732   0.22579   0.47195
C          C       0.42238   0.35830   0.21522   0.47113
C          C       0.63731   0.06161   0.22725   0.47150
C          C       0.06457   0.42732   0.22303   0.46870
C          C       0.57562   0.63738   0.22661   0.47203
C          C       0.35989   0.93578   0.20162   0.47173
C          C       0.98387   0.59825   0.17085  -0.12981
C          C       0.40119   0.38143   0.16187  -0.13130
C          C       0.61514   0.01816   0.17290  -0.12505
C          C       0.02014   0.40482   0.17362  -0.12618
C          C       0.59705   0.61492   0.17715  -0.12641
C          C       0.38230   0.98025   0.15043  -0.12923
C          C       0.00162   0.57338   0.14653  -0.20743
C          C       0.42600   0.42444   0.13653  -0.20879
C          C       0.57279  -0.00002   0.13567  -0.20805
C          C       0.00101   0.42817   0.13534  -0.21025
C          C       0.57277   0.57257   0.14518  -0.20802
C          C       0.42512   0.99907   0.12398  -0.20821
C          C       0.04383   0.59064   0.11578   0.22619
C          C       0.40864   0.44973   0.11078   0.22539
C          C       0.54880   0.95787   0.10427   0.22738
C          C       0.95817   0.40928   0.11096   0.22981
C          C       0.59077   0.54844   0.11590   0.22882
C          C       0.44969   0.04176   0.09712   0.22667
C          C       0.06894   0.63425   0.10579  -0.11401
C          C       0.36497   0.43121   0.10413  -0.12288
C          C       0.56798   0.93340   0.10626  -0.11533
C          C       0.93396   0.36552   0.11853  -0.12003
C          C       0.63452   0.56758   0.11431  -0.11527
C          C       0.43047   0.06620   0.09017  -0.12168
C          C       0.05148   0.65912   0.13071  -0.20638
C          C       0.34013   0.38839   0.12999  -0.20744
C          C       0.61009   0.95138   0.14405  -0.20483
C          C       0.95291   0.34221   0.15771  -0.20678
C          C       0.65877   0.60963   0.14786  -0.20516
C          C       0.38779   0.04758   0.11755  -0.20759
C          C       0.00914   0.64187   0.16153   0.22801
C          C       0.35748   0.36307   0.15847   0.22740
C          C       0.63415   0.99352   0.17627   0.22834
C          C       0.99567   0.36109   0.18540   0.22785
C          C       0.64078   0.63374   0.17872   0.22852
C          C       0.36327   0.00490   0.14741   0.22662
C          C       0.11238   0.65449   0.04849   0.47474
C          C       0.34518   0.45519   0.04569   0.47314
C          C       0.54563   0.89030   0.04894   0.47468
C          C       0.89022   0.34389   0.06232   0.47463
C          C       0.65538   0.54540   0.05740   0.47447
C          C       0.45359   0.10995   0.03154   0.47450
C          C       0.21244   0.72223   0.18466   0.01580
C          C       0.27796   0.48677   0.18231   0.01947
C          C       0.51313   0.78981   0.19186   0.01536
C          C       0.79108   0.27589   0.20730   0.01777
C          C       0.72416   0.51416   0.20216   0.01753
C          C       0.48452   0.20784   0.17454   0.01988
C          C       0.95472   0.65906   0.11983   0.07085
C          C       0.33930   0.29167   0.11702   0.06861
C          C       0.70585   0.04809   0.14308   0.07383
C          C       0.04917   0.34286   0.15141   0.07221
C          C       0.65938   0.70576   0.13687   0.07208
C          C       0.29221   0.95127   0.09831   0.06932
C          C       0.95854   0.69757   0.04033  -0.41401
C          C       0.30025   0.25903   0.03876  -0.41518
C          C       0.73902   0.04291   0.06606  -0.41574
C          C       0.04089   0.30384   0.07185  -0.41510
C          C       0.69757   0.73650   0.04763  -0.41757
C          C       0.26053   0.95827   0.01128  -0.41410
C          C       0.09716   0.57262   0.16865   0.07407
C          C       0.42400   0.51940   0.16137   0.06957
C          C       0.47801   0.90302   0.14551   0.07442
C          C       0.90257   0.42390   0.15009   0.07452
C          C       0.57365   0.47710   0.16165   0.07479
C          C       0.51973   0.09668   0.14928   0.06864
C          C       0.08905   0.53903   0.28703  -0.41501
C          C       0.46125   0.55211   0.24656  -0.41428
C          C       0.44912   0.90917   0.24603  -0.41558
C          C       0.90851   0.45836   0.25235  -0.41521
C          C       0.54006   0.45020   0.27520  -0.41261
C          C       0.55173   0.09173   0.24222  -0.41287
C          C       0.73689   0.48631   0.64136   0.06865
C          C       0.51305   0.25099   0.62574   0.06757
C          C       0.74743   0.26353   0.64680   0.06880
C          C       0.26343   0.51410   0.64585   0.06980
C          C       0.48704   0.74951   0.64465   0.06989
C          C       0.25077   0.73744   0.62874   0.06775
C          C       0.71066   0.44773   0.57659  -0.08808
C          C       0.55242   0.26492   0.56357  -0.08344
C          C       0.73465   0.29019   0.58179  -0.08720
C          C       0.28954   0.55385   0.58326  -0.08612
C          C       0.44738   0.73650   0.58362  -0.08718
C          C       0.26404   0.71151   0.56996  -0.08787
C          C       0.72658   0.42367   0.52049  -0.24519
C          C       0.57730   0.30629   0.51243  -0.24629
C          C       0.69433   0.27468   0.52249  -0.24574
C          C       0.27346   0.57877   0.52756  -0.24660
C          C       0.42251   0.69617   0.52929  -0.24589
C          C       0.30490   0.72769   0.51818  -0.24433
C          C       0.77005   0.44086   0.51736  -0.09034
C          C       0.56032   0.33268   0.51150  -0.08901
C          C       0.66808   0.23129   0.51662  -0.09069
C          C       0.22992   0.56147   0.52414  -0.09063
C          C       0.43973   0.67008   0.52498  -0.09231
C          C       0.33128   0.77115   0.51300  -0.09013
C          C       0.79679   0.47994   0.57834   0.06340
C          C       0.52055   0.31886   0.57042   0.06210
C          C       0.68071   0.20408   0.57843   0.06159
C          C       0.20326   0.52134   0.58390   0.06262
C          C       0.47974   0.68292   0.58294   0.06243
C          C       0.31807   0.79761   0.56795   0.06224
C          C       0.77966   0.50140   0.64725  -0.14818
C          C       0.49816   0.27860   0.63452  -0.14190
C          C       0.71971   0.22074   0.65031  -0.14705
C          C       0.22063   0.49878   0.65141  -0.14377
C          C       0.50226   0.72197   0.64958  -0.14714
C          C       0.27844   0.78016   0.63301  -0.14460
C          C       0.84202   0.49996   0.56468   0.00692
C          C       0.50037   0.34395   0.55867   0.01254
C          C       0.65556   0.15897   0.56212   0.00993
C          C       0.15791   0.50123   0.56903   0.00982
C          C       0.49952   0.65771   0.56786   0.00476
C          C       0.34341   0.84288   0.55161   0.01021
C          C       0.93524   0.57621   0.72638   0.47160
C          C       0.42168   0.35620   0.71772   0.47148
C          C       0.63876   0.06449   0.72465   0.47293
C          C       0.06473   0.42229   0.72929   0.46913
C          C       0.57777   0.64151   0.72678   0.47158
C          C       0.35757   0.93524   0.70265   0.47114
C          C       0.97948   0.59721   0.67630  -0.12365
C          C       0.39989   0.37887   0.66541  -0.13006
C          C       0.61688   0.02081   0.67192  -0.12358
C          C       0.02043   0.40125   0.67718  -0.12732
C          C       0.59822   0.61831   0.67539  -0.12583
C          C       0.38054   0.97953   0.64867  -0.13091
C          C       0.99702   0.57217   0.65421  -0.20958
C          C       0.42455   0.42160   0.63465  -0.20770
C          C       0.57439   0.00235   0.63692  -0.20772
C          C       0.00240   0.42606   0.64902  -0.20826
C          C       0.57294   0.57559   0.65250  -0.20841
C          C       0.42346   0.99776   0.62574  -0.20869
C          C       0.03929   0.58931   0.62430   0.22841
C          C       0.40703   0.44667   0.60690   0.22448
C          C       0.55052   0.96023   0.60587   0.22534
C          C       0.95983   0.40867   0.62189   0.22469
C          C       0.58977   0.55050   0.62276   0.22407
C          C       0.44864   0.04036   0.59820   0.22545
C          C       0.06431   0.63278   0.60831  -0.12236
C          C       0.36337   0.42822   0.60552  -0.12423
C          C       0.56989   0.93598   0.60591  -0.11806
C          C       0.93456   0.36508   0.62003  -0.12064
C          C       0.63327   0.56891   0.61152  -0.11673
C          C       0.42994   0.06524   0.58808  -0.12377
C          C       0.04694   0.65784   0.63243  -0.20659
C          C       0.33868   0.38560   0.63647  -0.20867
C          C       0.61213   0.95419   0.64214  -0.20565
C          C       0.95240   0.34025   0.64917  -0.20706
C          C       0.65859   0.61143   0.63522  -0.20667
C          C       0.38719   0.04722   0.61151  -0.20958
C          C       0.00489   0.64079   0.66714   0.22479
C          C       0.35622   0.36050   0.66553   0.22529
C          C       0.63610   0.99637   0.67412   0.22595
C          C       0.99505   0.35762   0.67610   0.22451
C          C       0.64178   0.63661   0.66588   0.22749
C          C       0.36203   0.00463   0.64116   0.22650
C          C       0.10706   0.65242   0.54464   0.47526
C          C       0.34306   0.45169   0.54669   0.47695
C          C       0.54749   0.89309   0.54636   0.47633
C          C       0.89110   0.34532   0.56053   0.47489
C          C       0.65261   0.54550   0.55246   0.47599
C          C       0.45348   0.10891   0.52955   0.47515
C          C       0.20750   0.72058   0.67639   0.01946
C          C       0.28017   0.48711   0.69407   0.02303
C          C       0.51369   0.79262   0.69296   0.01968
C          C       0.79057   0.27995   0.70016   0.01998
C          C       0.72014   0.51221   0.69196   0.01674
C          C       0.48602   0.20723   0.67115   0.02077
C          C       0.95284   0.66056   0.61445   0.07264
C          C       0.33733   0.28905   0.62298   0.07289
C          C       0.70781   0.05111   0.64063   0.07076
C          C       0.04762   0.33965   0.62360   0.07016
C          C       0.65924   0.70788   0.61497   0.06908
C          C       0.29081   0.95128   0.59168   0.07260
C          C       0.96192   0.69911   0.52080  -0.41782
C          C       0.29848   0.25842   0.53808  -0.41578
C          C       0.74115   0.04630   0.56281  -0.41474
C          C       0.04120   0.29983   0.55632  -0.41424
C          C       0.69804   0.74210   0.53822  -0.41565
C          C       0.25872   0.95795   0.50601  -0.41719
C          C       0.09489   0.57490   0.67457   0.06371
C          C       0.42288   0.51683   0.64761   0.06307
C          C       0.48035   0.90447   0.64803   0.06689
C          C       0.90502   0.42356   0.66620   0.06261
C          C       0.57406   0.48041   0.67962   0.06450
C          C       0.51853   0.09525   0.65103   0.06712
C          C       0.09376   0.53770   0.75392  -0.41120
C          C       0.46232   0.55358   0.70574  -0.41229
C          C       0.44666   0.90772   0.72933  -0.41236
C          C       0.90702   0.46194   0.72796  -0.41305
C          C       0.53612   0.44544   0.75748  -0.41187
C          C       0.55303   0.09188   0.73200  -0.41186
N          N       0.87005   0.52804   0.16985  -0.12985
N          N       0.47332   0.34040   0.15887  -0.12568
N          N       0.65821   0.13173   0.16687  -0.12958
N          N       0.13372   0.47658   0.15561  -0.12512
N          N       0.52731   0.65895   0.15787  -0.13056
N          N       0.34202   0.86743   0.14065  -0.12595
N          N       0.91138   0.54802   0.13207  -0.24391
N          N       0.45254   0.36125   0.12063  -0.24920
N          N       0.63721   0.09070   0.12879  -0.24400
N          N       0.09200   0.45599   0.12106  -0.24526
N          N       0.54791   0.63825   0.12433  -0.24296
N          N       0.36237   0.90910   0.10509  -0.24255
N          N       0.14313   0.68034   0.14459  -0.24847
N          N       0.31784   0.45792   0.13837  -0.25100
N          N       0.54137   0.85925   0.14708  -0.24914
N          N       0.86016   0.31642   0.15957  -0.25311
N          N       0.68197   0.54103   0.15515  -0.25244
N          N       0.45635   0.13968   0.12476  -0.25305
N          N       0.18329   0.69681   0.09643  -0.12804
N          N       0.30218   0.48282   0.09034  -0.12918
N          N       0.51783   0.81929   0.09906  -0.12885
N          N       0.81958   0.30012   0.11275  -0.12960
N          N       0.69874   0.51768   0.10967  -0.12953
N          N       0.48126   0.18056   0.08055  -0.12901
N          N       0.86571   0.52808   0.65937  -0.12809
N          N       0.47124   0.33710   0.65265  -0.12756
N          N       0.65974   0.13442   0.65865  -0.12961
N          N       0.13428   0.47212   0.66464  -0.12800
N          N       0.52828   0.66187   0.66268  -0.12816
N          N       0.33799   0.86613   0.64330  -0.12724
N          N       0.90724   0.54899   0.62569  -0.24010
N          N       0.44976   0.35739   0.61751  -0.24671
N          N       0.63944   0.09324   0.62265  -0.24441
N          N       0.09266   0.45123   0.62952  -0.24508
N          N       0.54873   0.64120   0.62861  -0.24179
N          N       0.35865   0.90776   0.60664  -0.24333
N          N       0.13850   0.67947   0.63556  -0.25374
N          N       0.31811   0.45673   0.64385  -0.25246
N          N       0.54300   0.86186   0.64362  -0.25348
N          N       0.85996   0.31938   0.65666  -0.25435
N          N       0.67923   0.54057   0.64786  -0.25190
N          N       0.45740   0.13888   0.62372  -0.25241
N          N       0.17858   0.69558   0.58635  -0.13253
N          N       0.30203   0.48137   0.59667  -0.13155
N          N       0.51917   0.82175   0.59688  -0.13323
N          N       0.81973   0.30342   0.60646  -0.13192
N          N       0.69544   0.51703   0.59986  -0.13169
N          N       0.48216   0.17958   0.57779  -0.12997
O          O       0.65534   0.36424   0.00676  -0.56793
O          O       0.63864   0.29311  -0.00268  -0.56651
O          O       0.71012   0.34784   0.00050  -0.56617
O          O       0.34766   0.63893   0.96572  -0.56681
O          O       0.36428   0.71022   0.96373  -0.56668
O          O       0.29290   0.65535   0.96888  -0.56806
O          O       0.93122   0.58459   0.35104  -0.49382
O          O       0.41507   0.34042   0.34086  -0.49219
O          O       0.65283   0.07005   0.35560  -0.49373
O          O       0.07519   0.42175   0.35117  -0.49224
O          O       0.58122   0.65218   0.35411  -0.49382
O          O       0.34261   0.92448   0.32633  -0.49329
O          O       0.11267   0.64505   0.41446  -0.49127
O          O       0.34859   0.46493   0.41391  -0.49798
O          O       0.53467   0.88715   0.41414  -0.49330
O          O       0.88474   0.35197   0.42727  -0.49546
O          O       0.64544   0.53270   0.42170  -0.49434
O          O       0.46752   0.11662   0.39930  -0.49552
O          O       0.99571   0.66968   0.17814  -0.22001
O          O       0.32974   0.32162   0.17928  -0.22128
O          O       0.67532   0.00787   0.20755  -0.22418
O          O       0.01069   0.33501   0.22208  -0.22540
O          O       0.66769   0.67474   0.20769  -0.22644
O          O       0.32173   0.99004   0.16971  -0.22511
O          O       0.05818   0.56356   0.09534  -0.22312
O          O       0.43591   0.49156   0.09549  -0.21528
O          O       0.50732   0.94270   0.07385  -0.22312
O          O       0.94225   0.43502   0.08138  -0.21821
O          O       0.56427   0.50709   0.08859  -0.22274
O          O       0.49153   0.05708   0.08065  -0.21635
O          O       0.65286   0.36420   0.47380  -0.56585
O          O       0.63737   0.29325   0.47310  -0.56633
O          O       0.70838   0.34871   0.47981  -0.56697
O          O       0.34714   0.63908   0.48058  -0.56593
O          O       0.36250   0.70993   0.48769  -0.56640
O          O       0.29150   0.65430   0.48149  -0.56691
O          O       0.92526   0.58140   0.85305  -0.49550
O          O       0.41677   0.34043   0.84660  -0.49437
O          O       0.65311   0.07325   0.85444  -0.49665
O          O       0.07447   0.41581   0.85794  -0.49325
O          O       0.58506   0.65770   0.85229  -0.49584
O          O       0.34145   0.92504   0.82954  -0.49403
O          O       0.11953   0.64886   0.91788  -0.49437
O          O       0.35291   0.47078   0.91607  -0.49527
O          O       0.53267   0.88372   0.91694  -0.49435
O          O       0.88227   0.35042   0.93106  -0.49633
O          O       0.64932   0.53287   0.92618  -0.49319
O          O       0.46858   0.11803   0.90266  -0.49511
O          O       0.99132   0.66835   0.68908  -0.22948
O          O       0.32871   0.31909   0.69023  -0.22388
O          O       0.67736   0.01073   0.70418  -0.22481
O          O       0.00904   0.33006   0.69757  -0.22565
O          O       0.66973   0.67803   0.68216  -0.22311
O          O       0.32052   0.99052   0.65942  -0.22415
O          O       0.05353   0.56189   0.61419  -0.21359
O          O       0.43427   0.48828   0.58466  -0.21346
O          O       0.50886   0.94476   0.57839  -0.22010
O          O       0.94530   0.43583   0.60042  -0.21587
O          O       0.56228   0.50880   0.60766  -0.21941
O          O       0.49050   0.05519   0.58485  -0.21644

