data_crystal

_audit_creation_method 'AiiDA-DDEC plugin'

_cell_length_a        37.39392
_cell_length_b        37.40614
_cell_length_c         8.88740

_cell_angle_alpha     88.81416
_cell_angle_beta     89.49292
_cell_angle_gamma     120.16913

_symmetry_space_group_name_Hall 'P 1'
_symmetry_space_group_name_H-M  'P 1'

loop_
_symmetry_equiv_pos_as_xyz
 'x,y,z'

loop_
_atom_site_label
_atom_site_type_symbol
_atom_site_fract_x
_atom_site_fract_y
_atom_site_fract_z
_atom_site_charge
B          B       0.69034   0.37510   0.10455   0.72350
B          B       0.62138   0.31497   0.10530   0.72251
B          B       0.68122   0.30636   0.11485   0.72303
B          B       0.30592   0.62115   0.13262   0.72215
B          B       0.37446   0.68141   0.14153   0.72436
B          B       0.31441   0.68971   0.13384   0.72244
B          B       0.69034   0.37379   0.59379   0.72266
B          B       0.62067   0.31538   0.58151   0.72334
B          B       0.67884   0.30405   0.59662   0.72520
B          B       0.30368   0.62043   0.60421   0.72530
B          B       0.37349   0.67874   0.61055   0.72434
B          B       0.31523   0.69016   0.60634   0.72288
H          H       0.67184   0.43338   0.50902   0.11197
H          H       0.56299   0.23704   0.50138   0.11356
H          H       0.75933   0.32617   0.53170   0.11248
H          H       0.32543   0.56364   0.52277   0.11357
H          H       0.43231   0.75883   0.53821   0.11382
H          H       0.23706   0.67056   0.52637   0.11300
H          H       0.77533   0.42647   0.15512   0.11260
H          H       0.57274   0.35193   0.12285   0.11161
H          H       0.64478   0.22038   0.14589   0.11217
H          H       0.21992   0.57077   0.15815   0.11198
H          H       0.42400   0.64523   0.16677   0.11196
H          H       0.35127   0.77534   0.15288   0.11213
H          H       0.79598   0.53611   0.44935   0.12133
H          H       0.46224   0.25816   0.40578   0.12126
H          H       0.74083   0.20528   0.44366   0.12169
H          H       0.20437   0.46217   0.42725   0.12028
H          H       0.53472   0.74012   0.44280   0.12126
H          H       0.25906   0.79374   0.43869   0.12129
H          H       0.84279   0.49908   0.19356   0.08834
H          H       0.50269   0.35101   0.13533   0.08981
H          H       0.64634   0.15139   0.16088   0.08891
H          H       0.15125   0.49907   0.17159   0.08659
H          H       0.49630   0.64864   0.18162   0.08769
H          H       0.35054   0.84462   0.16015   0.09043
H          H       0.90437   0.56351   0.14918   0.26594
H          H       0.43861   0.34637   0.10113   0.26760
H          H       0.64917   0.09195   0.12228   0.26754
H          H       0.09174   0.43618   0.12878   0.26517
H          H       0.56214   0.65556   0.13243   0.26731
H          H       0.34882   0.90499   0.11721   0.26771
H          H       0.96205   0.54301   0.03080   0.11725
H          H       0.45601   0.41929   0.98191   0.11964
H          H       0.57451   0.03392   0.98672   0.11719
H          H       0.03452   0.45324   0.01917   0.11707
H          H       0.54859   0.58060   0.01394   0.12085
H          H       0.42374   0.96431   0.98055   0.11811
H          H       0.06335   0.69280   0.50337   0.13421
H          H       0.30561   0.37091   0.50948   0.13356
H          H       0.62809   0.93509   0.49401   0.13424
H          H       0.93173   0.30550   0.53649   0.13369
H          H       0.69538   0.63254   0.49842   0.13576
H          H       0.36852   0.06105   0.46903   0.13437
H          H       0.12371   0.67160   0.37999   0.27644
H          H       0.32741   0.45122   0.37286   0.27371
H          H       0.54561   0.87427   0.38140   0.26912
H          H       0.87509   0.32502   0.39153   0.27691
H          H       0.67935   0.55448   0.36931   0.28108
H          H       0.45295   0.12336   0.35048   0.27285
H          H       0.19252   0.72223   0.32565   0.09649
H          H       0.27620   0.46757   0.32414   0.09371
H          H       0.52946   0.80705   0.33470   0.09243
H          H       0.80833   0.27431   0.34918   0.09649
H          H       0.72809   0.53442   0.32449   0.09649
H          H       0.46866   0.19206   0.29686   0.09237
H          H       0.09667   0.57059   0.07508   0.07960
H          H       0.43169   0.52684   0.04699   0.07997
H          H       0.47201   0.89729   0.05407   0.08053
H          H       0.90072   0.42407   0.08023   0.07862
H          H       0.59768   0.49028   0.03673   0.07701
H          H       0.52458   0.10105   0.02763   0.08235
H          H       0.09160   0.59634   0.42598   0.08832
H          H       0.40484   0.49711   0.40374   0.08633
H          H       0.50083   0.90297   0.43607   0.08636
H          H       0.91598   0.40653   0.36728   0.08594
H          H       0.59081   0.50406   0.37654   0.08635
H          H       0.50140   0.09978   0.44228   0.08166
H          H       0.03601   0.52309   0.32557   0.10791
H          H       0.47558   0.51064   0.28289   0.11626
H          H       0.49187   0.96095   0.29645   0.11171
H          H       0.96321   0.48378   0.28780   0.10918
H          H       0.51598   0.43456   0.55698   0.08758
H          H       0.50120   0.04255   0.27423   0.10896
H          H       0.08029   0.49529   0.24968   0.13604
H          H       0.51112   0.58504   0.21644   0.13141
H          H       0.41876   0.92293   0.22601   0.13549
H          H       0.91579   0.51087   0.25375   0.13173
H          H       0.49550   0.40483   0.30492   0.12884
H          H       0.57409   0.07088   0.19968   0.13342
H          H       0.11938   0.52776   0.38841   0.12534
H          H       0.48095   0.59302   0.36544   0.12305
H          H       0.40702   0.88514   0.38381   0.12202
H          H       0.87832   0.47118   0.38992   0.12581
H          H       0.54169   0.45020   0.21949   0.13396
H          H       0.59058   0.10338   0.36836   0.12131
H          H       0.95511   0.66292   0.13161   0.08834
H          H       0.35466   0.28922   0.02642   0.08454
H          H       0.70207   0.05815   0.10797   0.09229
H          H       0.05623   0.34406   0.08730   0.09132
H          H       0.65872   0.71293   0.10029   0.08964
H          H       0.29687   0.93954   0.09882   0.09150
H          H       0.92846   0.66063   0.43464   0.08377
H          H       0.33840   0.27021   0.40803   0.08186
H          H       0.72172   0.07314   0.44320   0.07989
H          H       0.06560   0.34350   0.41677   0.08077
H          H       0.65637   0.73079   0.42458   0.08163
H          H       0.27720   0.92285   0.45052   0.07999
H          H       0.95632   0.72786   0.90467   0.08976
H          H       0.29380   0.28128   0.18599   0.10814
H          H       0.73112   0.01159   0.17290   0.10425
H          H       0.03175   0.26440   0.91226   0.09648
H          H       0.72603   0.78184   0.89078   0.09316
H          H       0.27065   0.98738   0.17246   0.10537
H          H       0.97233   0.72796   0.24558   0.13760
H          H       0.25602   0.20095   0.00627   0.13363
H          H       0.80126   0.08061   0.97529   0.13823
H          H       0.06009   0.28964   0.23811   0.13282
H          H       0.72196   0.75820   0.22858   0.13910
H          H       0.19796   0.92181   0.99068   0.13804
H          H       0.97162   0.76963   0.13140   0.13815
H          H       0.23575   0.20925   0.18544   0.13893
H          H       0.80599   0.04543   0.11336   0.14039
H          H       0.04490   0.23952   0.15187   0.14031
H          H       0.76469   0.80357   0.12681   0.13820
H          H       0.19594   0.95717   0.12913   0.13880
H          H       0.66838   0.42933   0.99469   0.11153
H          H       0.56426   0.23521   0.03101   0.11407
H          H       0.76091   0.33022   0.03311   0.11445
H          H       0.32988   0.56606   0.04714   0.11441
H          H       0.43143   0.76192   0.06301   0.11370
H          H       0.23553   0.66746   0.04678   0.11383
H          H       0.77575   0.42046   0.63824   0.11293
H          H       0.57325   0.35415   0.59960   0.11154
H          H       0.64004   0.21752   0.61847   0.11334
H          H       0.21690   0.57182   0.62467   0.11303
H          H       0.42129   0.64012   0.63274   0.11315
H          H       0.35430   0.77639   0.63358   0.11363
H          H       0.78744   0.54079   0.98529   0.12109
H          H       0.46309   0.25491   0.92615   0.12077
H          H       0.74423   0.20999   0.94579   0.12195
H          H       0.20969   0.46374   0.94689   0.12060
H          H       0.53483   0.74505   0.96203   0.12121
H          H       0.25572   0.78930   0.94234   0.12073
H          H       0.84595   0.49131   0.67298   0.09432
H          H       0.50456   0.35413   0.61957   0.08810
H          H       0.64135   0.14832   0.64694   0.08747
H          H       0.14819   0.50166   0.64441   0.09000
H          H       0.49244   0.64207   0.65685   0.09155
H          H       0.35305   0.84584   0.65858   0.08967
H          H       0.90762   0.55545   0.63984   0.26929
H          H       0.44050   0.35006   0.59804   0.26575
H          H       0.65036   0.08961   0.62313   0.26628
H          H       0.08907   0.43890   0.61949   0.26621
H          H       0.55738   0.64819   0.62473   0.26541
H          H       0.34963   0.90721   0.61948   0.26645
H          H       0.96744   0.54125   0.52004   0.12072
H          H       0.45645   0.42599   0.47328   0.11982
H          H       0.57115   0.02929   0.50403   0.12396
H          H       0.03186   0.45547   0.48800   0.11892
H          H       0.54340   0.57267   0.50150   0.12351
H          H       0.42754   0.96869   0.50071   0.12315
H          H       0.06127   0.69328   0.98948   0.13450
H          H       0.30546   0.36710   0.97907   0.13449
H          H       0.63163   0.93994   0.01101   0.13393
H          H       0.93805   0.30299   0.97632   0.13609
H          H       0.70073   0.64698   0.95323   0.13696
H          H       0.36666   0.05846   0.98905   0.13384
H          H       0.12242   0.66994   0.88243   0.27554
H          H       0.33004   0.45279   0.87288   0.26950
H          H       0.54886   0.87721   0.89109   0.27048
H          H       0.87683   0.33171   0.87354   0.26477
H          H       0.67592   0.55444   0.85872   0.26554
H          H       0.44814   0.12223   0.86703   0.27449
H          H       0.19101   0.71424   0.82664   0.09390
H          H       0.28508   0.47584   0.82668   0.09415
H          H       0.52410   0.80995   0.84204   0.09684
H          H       0.80910   0.29228   0.81438   0.08886
H          H       0.68988   0.50408   0.82462   0.09466
H          H       0.46987   0.19051   0.82017   0.09700
H          H       0.10066   0.56800   0.56995   0.08179
H          H       0.43550   0.53427   0.53960   0.08093
H          H       0.46228   0.89846   0.56701   0.07897
H          H       0.89579   0.42322   0.51636   0.07614
H          H       0.59348   0.48355   0.55803   0.07622
H          H       0.53751   0.09508   0.55753   0.07768
H          H       0.08582   0.59498   0.92065   0.08870
H          H       0.40593   0.49235   0.89685   0.08828
H          H       0.50783   0.91134   0.89839   0.08934
H          H       0.91479   0.40683   0.91530   0.09017
H          H       0.59870   0.51893   0.87283   0.09354
H          H       0.49057   0.08605   0.87091   0.09127
H          H       0.03488   0.52057   0.82727   0.11377
H          H       0.47856   0.51218   0.78813   0.11183
H          H       0.47966   0.95977   0.80521   0.11032
H          H       0.96974   0.49736   0.96569   0.09551
H          H       0.51416   0.47524   0.93230   0.10520
H          H       0.52105   0.03932   0.79396   0.11094
H          H       0.08098   0.49271   0.78404   0.13660
H          H       0.51527   0.58765   0.75719   0.13047
H          H       0.40659   0.90985   0.76148   0.13215
H          H       0.93500   0.51112   0.75964   0.13300
H          H       0.50206   0.40856   0.83773   0.12935
H          H       0.59526   0.08788   0.75998   0.13001
H          H       0.11692   0.52715   0.92705   0.12823
H          H       0.48246   0.59104   0.90784   0.12768
H          H       0.40770   0.87326   0.90272   0.12968
H          H       0.89425   0.45573   0.75928   0.13760
H          H       0.55668   0.42400   0.86930   0.13947
H          H       0.59219   0.12411   0.89163   0.13253
H          H       0.94239   0.64410   0.60366   0.09257
H          H       0.35378   0.29657   0.58285   0.09082
H          H       0.70153   0.04447   0.61742   0.08782
H          H       0.05344   0.34495   0.61087   0.09161
H          H       0.64346   0.70155   0.59879   0.08815
H          H       0.29765   0.95318   0.61422   0.08847
H          H       0.92434   0.65135   0.96659   0.08011
H          H       0.31946   0.25594   0.89054   0.08153
H          H       0.73394   0.07603   0.94011   0.08333
H          H       0.07541   0.34469   0.90155   0.07710
H          H       0.64902   0.73434   0.93375   0.08127
H          H       0.26359   0.92346   0.93999   0.08267
H          H       0.99019   0.71922   0.66846   0.10513
H          H       0.27847   0.26296   0.66623   0.10451
H          H       0.76694   0.04145   0.40856   0.08978
H          H       0.01489   0.26033   0.46542   0.10606
H          H       0.71979   0.73629   0.65921   0.10766
H          H       0.23105   0.95339   0.40826   0.08742
H          H       0.92319   0.72272   0.47776   0.13801
H          H       0.27772   0.20147   0.43751   0.13542
H          H       0.74767   0.02727   0.75070   0.13879
H          H       0.08491   0.29964   0.69569   0.14412
H          H       0.71431   0.80134   0.45576   0.13721
H          H       0.25039   0.96989   0.74558   0.13858
H          H       0.95747   0.76119   0.61437   0.13919
H          H       0.23870   0.19015   0.58910   0.13920
H          H       0.79103   0.02737   0.64735   0.13671
H          H       0.05761   0.24534   0.63510   0.14055
H          H       0.75511   0.81089   0.59245   0.13934
H          H       0.20666   0.96831   0.64324   0.13606
C          C       0.73187   0.48759   0.47287   0.07097
C          C       0.51005   0.24283   0.44724   0.07060
C          C       0.75510   0.26801   0.48326   0.06909
C          C       0.26718   0.51035   0.46945   0.07142
C          C       0.48625   0.75444   0.48563   0.07004
C          C       0.24316   0.72999   0.47689   0.07081
C          C       0.70506   0.44624   0.51819  -0.08862
C          C       0.55017   0.25750   0.50033  -0.08452
C          C       0.73900   0.29278   0.53088  -0.08193
C          C       0.29203   0.55042   0.52283  -0.08567
C          C       0.44533   0.73855   0.53743  -0.08266
C          C       0.25760   0.70389   0.52825  -0.08599
C          C       0.71874   0.42253   0.07798  -0.24384
C          C       0.57449   0.29632   0.07552  -0.24353
C          C       0.70018   0.27837   0.08901  -0.24591
C          C       0.27803   0.57433   0.10207  -0.24231
C          C       0.42179   0.70084   0.11422  -0.24563
C          C       0.29615   0.71821   0.09950  -0.24383
C          C       0.76141   0.44352   0.10688  -0.09424
C          C       0.55559   0.32072   0.08030  -0.09271
C          C       0.67628   0.23493   0.10001  -0.09384
C          C       0.23455   0.55452   0.11078  -0.09269
C          C       0.44121   0.67693   0.12200  -0.09150
C          C       0.32045   0.76157   0.10613  -0.09279
C          C       0.79067   0.48074   0.54834   0.06186
C          C       0.51526   0.30855   0.50628   0.06330
C          C       0.68807   0.20647   0.53501   0.06286
C          C       0.20575   0.51454   0.52856   0.06065
C          C       0.48064   0.68780   0.54220   0.06247
C          C       0.30897   0.78988   0.54040   0.06300
C          C       0.77455   0.50404   0.48278  -0.14265
C          C       0.49344   0.26900   0.44502  -0.14350
C          C       0.72901   0.22512   0.47951  -0.14082
C          C       0.22430   0.49334   0.46669  -0.14297
C          C       0.50302   0.72843   0.48221  -0.14155
C          C       0.26956   0.77283   0.47744  -0.14602
C          C       0.83123   0.50779   0.09457   0.01341
C          C       0.49386   0.32922   0.04332   0.01130
C          C       0.66844   0.16508   0.06581   0.00907
C          C       0.16465   0.49234   0.07345   0.00645
C          C       0.50403   0.66995   0.08432   0.00934
C          C       0.32964   0.83223   0.06502   0.00789
C          C       0.92989   0.58262   0.43075   0.47036
C          C       0.41457   0.34742   0.39323   0.47027
C          C       0.65038   0.06873   0.41136   0.47713
C          C       0.06696   0.41262   0.41635   0.47096
C          C       0.58310   0.65239   0.41605   0.47430
C          C       0.34957   0.92896   0.40489   0.47586
C          C       0.97321   0.60133   0.48326  -0.12485
C          C       0.39594   0.37150   0.45432  -0.12423
C          C       0.62610   0.02480   0.46729  -0.12559
C          C       0.02382   0.39413   0.47833  -0.12833
C          C       0.60282   0.62858   0.47222  -0.12751
C          C       0.37281   0.97257   0.45546  -0.11884
C          C       0.98373   0.57606   0.02383  -0.21279
C          C       0.42290   0.40753   0.98234  -0.20876
C          C       0.58754   0.01375   0.99571  -0.21033
C          C       0.01383   0.42005   0.01369  -0.20581
C          C       0.58212   0.59584   0.00506  -0.20456
C          C       0.41072   0.98450   0.98604  -0.20768
C          C       0.02552   0.59009   0.04618   0.22822
C          C       0.40880   0.43464   0.01554   0.22873
C          C       0.56062   0.97174   0.02583   0.22851
C          C       0.97186   0.40461   0.04164   0.22572
C          C       0.60057   0.57193   0.02890   0.22401
C          C       0.43725   0.02626   0.01177   0.22718
C          C       0.05400   0.63296   0.03720  -0.12161
C          C       0.36594   0.41996   0.01744  -0.11461
C          C       0.57657   0.94473   0.03417  -0.12326
C          C       0.94392   0.36196   0.02798  -0.12011
C          C       0.64380   0.59034   0.01096  -0.11536
C          C       0.42146   0.05339   0.01565  -0.11998
C          C       0.04270   0.65946   0.50477  -0.20190
C          C       0.33883   0.38343   0.49970  -0.20464
C          C       0.61514   0.95541   0.49444  -0.20548
C          C       0.95334   0.33851   0.52285  -0.20557
C          C       0.66196   0.61901   0.49723  -0.20060
C          C       0.38204   0.04123   0.47313  -0.20511
C          C       0.00096   0.64436   0.47440   0.22990
C          C       0.35299   0.35640   0.46253   0.23175
C          C       0.64166   0.99746   0.45995   0.23015
C          C       0.99477   0.35137   0.48804   0.23138
C          C       0.64609   0.64519   0.46813   0.22759
C          C       0.35656  -0.00069   0.44347   0.22980
C          C       0.09676   0.64970   0.09534   0.47443
C          C       0.34931   0.44547   0.08210   0.47444
C          C       0.55070   0.90177   0.09808   0.47516
C          C       0.90049   0.34361   0.08714   0.48002
C          C       0.66542   0.56871   0.07020   0.48304
C          C       0.44738   0.09586   0.07400   0.47125
C          C       0.19966   0.71338   0.43499   0.01911
C          C       0.28490   0.48440   0.42954   0.01796
C          C       0.51305   0.79855   0.44412   0.02204
C          C       0.79931   0.28525   0.44815   0.01972
C          C       0.71656   0.51566   0.42917   0.02544
C          C       0.48386   0.19931   0.40601   0.02146
C          C       0.07354   0.56677   0.99206   0.00475
C          C       0.43414   0.50694   0.96343   0.00569
C          C       0.49040   0.92148   0.96857   0.00255
C          C       0.92589   0.43118  -0.00138   0.01056
C          C       0.58038   0.50220   0.97430   0.00082
C          C       0.50771   0.07665   0.94669   0.00147
C          C       0.06553   0.53321   0.37908  -0.02623
C          C       0.46854   0.53148   0.34322  -0.03147
C          C       0.46946   0.93356   0.36093  -0.03379
C          C       0.93364   0.46995   0.34873  -0.03234
C          C       0.53470   0.45052   0.45653  -0.04657
C          C       0.52580   0.06507   0.34332  -0.03961
C          C       0.08965   0.51805   0.33732  -0.33644
C          C       0.48778   0.57186   0.30652  -0.33591
C          C       0.42978   0.91278   0.32160  -0.33385
C          C       0.90799   0.48474   0.33011  -0.33013
C          C       0.52345   0.43437   0.32050  -0.31296
C          C       0.56549   0.08058   0.30182  -0.33267
C          C       0.95398   0.67352   0.01643   0.01423
C          C       0.32427   0.27850   0.97636   0.01783
C          C       0.71755   0.04991   0.02075   0.00751
C          C       0.04957   0.32703   0.98231   0.01602
C          C       0.67085   0.72682   0.98793   0.01545
C          C       0.28130   0.94900   0.01583   0.00703
C          C       0.95970   0.71609   0.01363  -0.05833
C          C       0.29090   0.26070   0.09589  -0.06111
C          C       0.74586   0.03726   0.09109  -0.05259
C          C       0.04250   0.28430   0.00907  -0.05800
C          C       0.71301   0.76425   0.99591  -0.06344
C          C       0.25471   0.96264   0.09337  -0.05316
C          C       0.96822   0.73897   0.13617  -0.31645
C          C       0.25929   0.22171   0.09591  -0.32523
C          C       0.78636   0.05529   0.05826  -0.32726
C          C       0.04944   0.27054   0.13934  -0.32681
C          C       0.73421   0.77598   0.12333  -0.31458
C          C       0.21423   0.94644   0.06981  -0.32746
C          C       0.72569   0.48780   0.98438   0.07329
C          C       0.51085   0.24002   0.97405   0.06881
C          C       0.75771   0.27247   0.98477   0.07370
C          C       0.27213   0.51225   0.99164   0.06875
C          C       0.48587   0.75860   0.00701   0.06964
C          C       0.24067   0.72615   0.98955   0.07045
C          C       0.70143   0.44515   0.01557  -0.09763
C          C       0.55095   0.25524   0.02853  -0.08657
C          C       0.74148   0.29669   0.03645  -0.09045
C          C       0.29637   0.55200   0.04825  -0.08938
C          C       0.44527   0.74236   0.06287  -0.08813
C          C       0.25556   0.70091   0.04636  -0.08828
C          C       0.72051   0.42106   0.57191  -0.24513
C          C       0.57417   0.29827   0.54910  -0.24554
C          C       0.69701   0.27515   0.57326  -0.24558
C          C       0.27454   0.57383   0.57269  -0.24404
C          C       0.42074   0.69675   0.58398  -0.24685
C          C       0.29832   0.72010   0.57858  -0.24474
C          C       0.76348   0.43919   0.59148  -0.09246
C          C       0.55573   0.32308   0.55607  -0.09087
C          C       0.67218   0.23169   0.57994  -0.08960
C          C       0.23107   0.55485   0.57983  -0.09103
C          C       0.43937   0.67205   0.59094  -0.09043
C          C       0.32326   0.76335   0.58915  -0.09110
C          C       0.78644   0.48591   0.07061   0.06718
C          C       0.51523   0.30566   0.02874   0.06348
C          C       0.69218   0.21023   0.04931   0.06602
C          C       0.20983   0.51451   0.05625   0.06468
C          C       0.48210   0.69304   0.06906   0.06595
C          C       0.30588   0.78726   0.05049   0.06344
C          C       0.76814   0.50781   0.01034  -0.14660
C          C       0.49403   0.26599   0.96854  -0.14708
C          C       0.73245   0.22946   0.98625  -0.14646
C          C       0.22912   0.49452   0.99035  -0.14701
C          C       0.50340   0.73326   0.00492  -0.14539
C          C       0.26657   0.76910   0.98609  -0.14700
C          C       0.83521   0.50134   0.57494   0.00722
C          C       0.49457   0.33259   0.52641   0.01354
C          C       0.66408   0.16134   0.55367   0.01722
C          C       0.16073   0.49306   0.54862   0.00901
C          C       0.50188   0.66407   0.56080   0.01275
C          C       0.33299   0.83467   0.56082   0.01117
C          C       0.92580   0.58354   0.93109   0.47031
C          C       0.41481   0.34225   0.88973   0.46233
C          C       0.65485   0.07352   0.91185   0.46881
C          C       0.07318   0.41506   0.91518   0.46577
C          C       0.58271   0.65909   0.91319   0.46926
C          C       0.34463   0.92556   0.90494   0.46985
C          C       0.96962   0.60305   0.98180  -0.11250
C          C       0.39576   0.36669   0.94229  -0.11934
C          C       0.62976   0.02940   0.96555  -0.12252
C          C       0.02904   0.39440   0.96772  -0.12664
C          C       0.60553   0.63758   0.95884  -0.12194
C          C       0.36892   0.96921   0.95530  -0.11632
C          C       0.98802   0.57456   0.52133  -0.20641
C          C       0.42328   0.41309   0.48613  -0.20642
C          C       0.58429   0.00913   0.50700  -0.20371
C          C       0.01030   0.42248   0.50274  -0.20539
C          C       0.57679   0.58632   0.50661  -0.20245
C          C       0.41407   0.98856   0.49742  -0.20528
C          C       0.02980   0.58962   0.54805   0.22684
C          C       0.40916   0.43994   0.52283   0.22418
C          C       0.55775   0.96709   0.53800   0.22525
C          C       0.96881   0.40959   0.52988   0.22658
C          C       0.59263   0.56003   0.53284   0.22119
C          C       0.43955   0.03047   0.52516   0.22678
C          C       0.05738   0.63271   0.54307  -0.11582
C          C       0.36626   0.42486   0.53097  -0.11344
C          C       0.57360   0.93993   0.53544  -0.11377
C          C       0.94000   0.36692   0.54452  -0.12051
C          C       0.63592   0.57677   0.53031  -0.11887
C          C       0.42315   0.05710   0.51547  -0.11053
C          C       0.04002   0.66006   0.99470  -0.20135
C          C       0.33868   0.37919   0.97637  -0.20369
C          C       0.61867   0.96020   0.00291  -0.20158
C          C       0.95883   0.33619   0.98228  -0.20399
C          C       0.66722   0.63186   0.96339  -0.20074
C          C       0.37970   0.03824   0.98433  -0.19999
C          C       0.99831   0.64574   0.96566   0.22454
C          C       0.35299   0.35237   0.93797   0.22944
C          C       0.64549   0.00217   0.96845   0.22619
C          C       0.00111   0.35169   0.95382   0.22948
C          C       0.64866   0.65578   0.93737   0.22567
C          C       0.35329   0.99655   0.95389   0.22434
C          C       0.10068   0.64994   0.59511   0.47204
C          C       0.34982   0.45150   0.58432   0.47190
C          C       0.54815   0.89631   0.59385   0.47209
C          C       0.89659   0.35214   0.59604   0.46845
C          C       0.65375   0.55086   0.58144   0.46702
C          C       0.44722   0.10046   0.56819   0.47417
C          C       0.19732   0.70877   0.94277   0.02500
C          C       0.29030   0.48725   0.94195   0.02547
C          C       0.51177   0.80245   0.95824   0.02426
C          C       0.80161   0.29148   0.93481   0.02866
C          C       0.70564   0.51121   0.93297   0.03121
C          C       0.48452   0.19669   0.93045   0.01997
C          C       0.07791   0.56682   0.49003   0.00778
C          C       0.43469   0.51173   0.46051   0.01138
C          C       0.48638   0.91936   0.48572   0.00804
C          C       0.92289   0.43216   0.44259   0.00437
C          C       0.57394   0.48989   0.48304   0.00756
C          C       0.51233   0.07877   0.47856   0.01514
C          C       0.06315   0.53163   0.89054  -0.02952
C          C       0.47029   0.53066   0.85785  -0.03311
C          C       0.46388   0.93024   0.86712  -0.02477
C          C       0.94110   0.47255   0.92172  -0.04599
C          C       0.53896   0.46797   0.92768  -0.02957
C          C       0.53594   0.06830   0.85334  -0.02535
C          C       0.08833   0.51648   0.86631  -0.33576
C          C       0.49023   0.57187   0.84021  -0.33305
C          C       0.42410   0.90303   0.84277  -0.34050
C          C       0.92235   0.48004   0.80818  -0.32743
C          C       0.53232   0.43180   0.87590  -0.35047
C          C       0.57645   0.09489   0.83416  -0.33993
C          C       0.95300   0.66894   0.51662   0.00889
C          C       0.32911   0.28330   0.49952   0.00759
C          C       0.71388   0.04425   0.50506   0.01523
C          C       0.04317   0.32644   0.50901   0.01029
C          C       0.66734   0.71695   0.50926   0.00772
C          C       0.28480   0.95220   0.50277   0.01480
C          C       0.96544   0.70933   0.58780  -0.05151
C          C       0.28914   0.25183   0.57355  -0.05485
C          C       0.75071   0.03865   0.51448  -0.06203
C          C       0.03837   0.28446   0.53339  -0.04946
C          C       0.70727   0.74840   0.57540  -0.05112
C          C       0.24757   0.95719   0.51249  -0.05965
C          C       0.94789   0.73223   0.55836  -0.32864
C          C       0.26740   0.21251   0.53140  -0.32732
C          C       0.76382   0.03080   0.64394  -0.31461
C          C       0.06132   0.27609   0.62646  -0.34310
C          C       0.72653   0.78884   0.53925  -0.33197
C          C       0.23425   0.96549   0.64009  -0.31495
N          N       0.86025   0.53181   0.48577  -0.12237
N          N       0.46434   0.32687   0.44077  -0.13074
N          N       0.67142   0.13832   0.46620  -0.12908
N          N       0.13703   0.46341   0.46075  -0.12764
N          N       0.53217   0.67085   0.46998  -0.12510
N          N       0.32841   0.85927   0.46826  -0.12770
N          N       0.89663   0.55806   0.03615  -0.24970
N          N       0.44244   0.34170   0.98872  -0.24347
N          N       0.65446   0.10113   0.00921  -0.24165
N          N       0.10074   0.44177   0.01559  -0.24096
N          N       0.55591   0.65851   0.02013  -0.24717
N          N       0.34408   0.89694   0.00472  -0.24235
N          N       0.13128   0.67476   0.49352  -0.25146
N          N       0.32477   0.45660   0.48599  -0.24681
N          N       0.54208   0.86623   0.49596  -0.24891
N          N       0.86665   0.32551   0.50308  -0.24775
N          N       0.67812   0.54527   0.48187  -0.24447
N          N       0.45488   0.13094   0.46374  -0.24931
N          N       0.16851   0.68871   0.04373  -0.13136
N          N       0.31054   0.47854   0.03903  -0.13068
N          N       0.51983   0.83033   0.05669  -0.13092
N          N       0.82927   0.30621   0.03728  -0.13135
N          N       0.70623   0.53842   0.02179  -0.13434
N          N       0.47833   0.16764   0.02675  -0.12944
N          N       0.85552   0.53679  -0.00102  -0.12410
N          N       0.46415   0.32237   0.95297  -0.12784
N          N       0.67499   0.14262   0.97265  -0.12405
N          N       0.14212   0.46428   0.97849  -0.12557
N          N       0.53305   0.67699   0.98711  -0.12475
N          N       0.32416   0.85590   0.97063  -0.12560
N          N       0.90081   0.55261   0.52634  -0.23912
N          N       0.44394   0.34710   0.48389  -0.24506
N          N       0.65126   0.09696   0.50894  -0.25898
N          N       0.09612   0.44215   0.50500  -0.24047
N          N       0.55327   0.65097   0.51068  -0.25189
N          N       0.34807   0.90012   0.50621  -0.24702
N          N       0.12862   0.67374  -0.00302  -0.25316
N          N       0.32584   0.45425   0.98828  -0.25136
N          N       0.54493   0.87058   0.00646  -0.25120
N          N       0.86969   0.32316   0.98713  -0.24934
N          N       0.68667   0.55919   0.96877  -0.25999
N          N       0.45280   0.12791   0.98137  -0.25286
N          N       0.17165   0.68975   0.53379  -0.12873
N          N       0.30918   0.48147   0.52547  -0.12808
N          N       0.51690   0.82550   0.54109  -0.12764
N          N       0.82586   0.31121   0.54018  -0.12605
N          N       0.69135   0.51823   0.52276  -0.12932
N          N       0.47919   0.17135   0.50474  -0.13054
O          O       0.64746   0.35774   0.10403  -0.56975
O          O       0.63844   0.28947   0.11868  -0.56577
O          O       0.70685   0.34918   0.11853  -0.56609
O          O       0.34866   0.63859   0.14217  -0.56723
O          O       0.35691   0.70657   0.14883  -0.56698
O          O       0.28891   0.64683   0.13470  -0.56678
O          O       0.92175   0.59179   0.30530  -0.48978
O          O       0.40649   0.33222   0.26640  -0.49100
O          O       0.66563   0.07803   0.28159  -0.49395
O          O       0.07463   0.40433   0.28930  -0.49634
O          O       0.59141   0.66937   0.28862  -0.48998
O          O       0.33527   0.92032   0.27632  -0.49659
O          O       0.10182   0.64231   0.22814  -0.49337
O          O       0.35608   0.45640   0.21482  -0.48964
O          O       0.53661   0.89600   0.22921  -0.48869
O          O       0.89415   0.34689   0.22224  -0.49312
O          O       0.66331   0.56088   0.20755  -0.49216
O          O       0.46209   0.10067   0.20185  -0.49022
O          O       0.98951   0.67299   0.43774  -0.22358
O          O       0.32310   0.31638   0.43684  -0.21927
O          O       0.68188   0.00934   0.42204  -0.23275
O          O       0.00299   0.32001   0.46693  -0.20998
O          O       0.67436   0.68607   0.43736  -0.22065
O          O       0.31629   0.98645   0.40717  -0.23588
O          O       0.03667   0.56067   0.07373  -0.21829
O          O       0.43814   0.47477   0.04457  -0.22101
O          O       0.51937   0.95904   0.04441  -0.21257
O          O       0.95981   0.43233   0.08223  -0.22098
O          O       0.57491   0.53067   0.06753  -0.22273
O          O       0.47837   0.03885   0.02921  -0.20875
O          O       0.64775   0.35786   0.58619  -0.56737
O          O       0.63631   0.28855   0.59279  -0.56621
O          O       0.70538   0.34657   0.60730  -0.56715
O          O       0.34620   0.63617   0.61460  -0.56719
O          O       0.35759   0.70537   0.61551  -0.56654
O          O       0.28830   0.64747   0.60764  -0.56660
O          O       0.91782   0.58792   0.79872  -0.49901
O          O       0.40864   0.32690   0.76311  -0.49194
O          O       0.67181   0.08341   0.78471  -0.49368
O          O       0.08330   0.41037   0.78631  -0.50347
O          O       0.58587   0.67364   0.78325  -0.49713
O          O       0.32916   0.91694   0.77806  -0.49483
O          O       0.10764   0.64235   0.72518  -0.49461
O          O       0.35781   0.46693   0.71107  -0.49416
O          O       0.53455   0.88871   0.72599  -0.49240
O          O       0.88879   0.36286   0.71831  -0.49421
O          O       0.64588   0.53486   0.71121  -0.49839
O          O       0.45837   0.10751   0.70103  -0.49630
O          O       0.98784   0.67499   0.92580  -0.23377
O          O       0.32411   0.31315   0.89672  -0.22780
O          O       0.68624   0.01423   0.94012  -0.22694
O          O       0.01198   0.32293   0.91735  -0.21606
O          O       0.67444   0.69655   0.89565  -0.23026
O          O       0.31271   0.98438   0.92563  -0.22738
O          O       0.04206   0.56110   0.57679  -0.21539
O          O       0.43838   0.48043   0.54826  -0.22167
O          O       0.51689   0.95422   0.57027  -0.22000
O          O       0.95802   0.43968   0.53398  -0.21488
O          O       0.56416   0.51872   0.55584  -0.21161
O          O       0.47977   0.04353   0.56410  -0.22463

