data_crystal

_audit_creation_method 'AiiDA-DDEC plugin'

_cell_length_a        49.76039
_cell_length_b        39.22636
_cell_length_c         7.64536

_cell_angle_alpha     89.06859
_cell_angle_beta     110.96157
_cell_angle_gamma     129.49377

_symmetry_space_group_name_Hall 'P 1'
_symmetry_space_group_name_H-M  'P 1'

loop_
_symmetry_equiv_pos_as_xyz
 'x,y,z'

loop_
_atom_site_label
_atom_site_type_symbol
_atom_site_fract_x
_atom_site_fract_y
_atom_site_fract_z
_atom_site_charge
H          H       0.42491   0.58537   0.98256   0.11893
H          H       0.38917   0.60624   0.02419   0.10864
H          H       0.38056   0.54705   0.50135   0.10390
H          H       0.41943   0.53006   0.47054   0.09795
H          H       0.30179   0.47917   0.12929   0.13795
H          H       0.23423   0.43680   0.14230   0.13966
H          H       0.42924   0.67578   0.35049   0.13573
H          H       0.42343   0.73955   0.32860   0.13652
H          H       0.37908   0.73461   0.99236   0.11200
H          H       0.42577   0.81670  -0.00282   0.12076
H          H       0.41158   0.85710   0.45257   0.11531
H          H       0.36617   0.77560   0.45313   0.11323
H          H       0.30117   0.72916   0.14849   0.12449
H          H       0.23581   0.67157   0.19441   0.12596
H          H       0.23061   0.65301   0.52728   0.11617
H          H       0.17740   0.64479   0.53918   0.12012
H          H       0.14500   0.52558   0.06041   0.10140
H          H       0.09262   0.51679   0.07303   0.09081
H          H       0.16104   0.49286   0.30265   0.12369
H          H       0.18010   0.44381   0.26026   0.13521
H          H       0.31225   0.61023   0.19056   0.26152
H          H       0.57940   0.49047   0.03098   0.10798
H          H       0.62454   0.48150   0.03223   0.10950
H          H       0.60518   0.40946   0.46708   0.11024
H          H       0.56071   0.41938   0.47020   0.11875
H          H       0.69685   0.54307   0.37767   0.13526
H          H       0.76388   0.58586   0.35846   0.13692
H          H       0.57181   0.34716   0.18850   0.13300
H          H       0.57683   0.28308   0.19869   0.13375
H          H       0.58333   0.24834   0.93788   0.11404
H          H       0.53579   0.16612   0.92915   0.12123
H          H       0.61608   0.19692   0.51014   0.11640
H          H       0.66303   0.27930   0.52127   0.11586
H          H       0.68394   0.28071   0.20155   0.12460
H          H       0.75165   0.34140   0.18038   0.12383
H          H       0.81346   0.40533   0.44005   0.11213
H          H       0.86401   0.40918   0.42054   0.12261
H          H       0.80925   0.46367   0.96111   0.09840
H          H       0.86178   0.47064   0.95132   0.10932
H          H       0.84083   0.53328   0.22962   0.12470
H          H       0.81952   0.58054   0.25816   0.13409
H          H       0.68685   0.41041   0.30892   0.25935
H          H       0.42240   0.46032   0.10840   0.10325
H          H       0.44099   0.41934   0.02213   0.11440
H          H       0.56217   0.54194   0.36232   0.11788
H          H       0.54322   0.58168   0.45389   0.11859
H          H       0.49666   0.42799   0.00720   0.08119
H          H       0.48713   0.57294   0.46322   0.07318
H          H       0.51636   0.96355   0.27576   0.11893
H          H       0.56449   0.04655   0.29157   0.10985
H          H       0.48259   0.05968   0.23817   0.11897
H          H       0.43539   0.97743   0.23390   0.10881
H          H       0.58368   0.12039   0.29768   0.07044
H          H       0.41767   0.90516   0.24743   0.06691
H          H       0.06381   0.59477   0.41723   0.11734
H          H       0.00307   0.57399   0.39029   0.11085
H          H       0.93553   0.43329   0.08264   0.11575
H          H       0.99589   0.45416   0.10555   0.10772
H          H       0.93356   0.51995   0.26943   0.06767
H          H       0.06170   0.50370   0.22006   0.06358
H          H       0.92991   0.59160   0.47725   0.11968
H          H       0.89261   0.60965   0.52098   0.10925
H          H       0.87538   0.53734   0.95513   0.10325
H          H       0.91472   0.52153   0.91989   0.10051
H          H       0.80042   0.47572   0.61532   0.13490
H          H       0.73435   0.43488   0.64211   0.14110
H          H       0.92995   0.67280   0.85034   0.13594
H          H       0.92590   0.73805   0.84891   0.13666
H          H       0.88039   0.73135   0.50051   0.11138
H          H       0.92705   0.81273   0.49620   0.12107
H          H       0.91507   0.85683   0.95177   0.11412
H          H       0.87038   0.77614   0.96416   0.11431
H          H       0.80507   0.73035   0.66803   0.12377
H          H       0.73910   0.67259   0.70912   0.12570
H          H       0.73298   0.65137   0.04172   0.11616
H          H       0.68040   0.64416   0.05737   0.11999
H          H       0.64644   0.52788   0.55301   0.10209
H          H       0.59465   0.52065   0.56765   0.09084
H          H       0.66122   0.49126   0.79094   0.12576
H          H       0.68021   0.44223   0.74595   0.13506
H          H       0.81263   0.60840   0.66676   0.26593
H          H       0.07930   0.48787   0.52735   0.10956
H          H       0.12258   0.47648   0.51726   0.10858
H          H       0.10535   0.40646   0.96018   0.11062
H          H       0.06225   0.41820   0.97079   0.11949
H          H       0.19548   0.53908   0.87095   0.13727
H          H       0.26404   0.58311   0.86529   0.13801
H          H       0.06982   0.34253   0.65660   0.13407
H          H       0.07514   0.27854   0.66873   0.13382
H          H       0.08358   0.24462   0.42429   0.11414
H          H       0.03704   0.16162   0.41222   0.12110
H          H       0.11758   0.19325   0.99390   0.11367
H          H       0.16301   0.27630   0.00931   0.11568
H          H       0.18313   0.27710   0.68423   0.12411
H          H       0.25108   0.33824   0.66622   0.12448
H          H       0.31230   0.39969   0.92915   0.11354
H          H       0.36301   0.40422   0.90818   0.12199
H          H       0.31180   0.46451   0.47087   0.09736
H          H       0.36471   0.47243   0.46130   0.11015
H          H       0.34170   0.53072   0.73672   0.12180
H          H       0.32094   0.57845   0.76940   0.13354
H          H       0.18626   0.40714   0.80693   0.26028
H          H       0.92479   0.46103   0.57987   0.10263
H          H       0.94537   0.42210   0.49916   0.11331
H          H       0.06521   0.54316   0.87518   0.11751
H          H       0.04458   0.58230   0.94940   0.11864
H          H       0.00403   0.43562   0.49238   0.07697
H          H       0.98471   0.56881   0.94753   0.07428
H          H       0.01852   0.96020   0.77812   0.11846
H          H       0.06725   0.04319   0.79239   0.10952
H          H       0.98415   0.05607   0.70365   0.11802
H          H       0.93584   0.97361   0.69673   0.10946
H          H       0.08654   0.11700   0.79074   0.07075
H          H       0.91846   0.90185   0.72614   0.06754
H          H       0.56579   0.59551   0.92260   0.11801
H          H       0.50471   0.57392   0.89438   0.10944
H          H       0.43846   0.43273   0.59883   0.11600
H          H       0.49934   0.45436   0.62569   0.10771
H          H       0.43557   0.51903   0.78302   0.06883
H          H       0.56477   0.50503   0.72888   0.06352
H          H       0.19100   0.44126   0.61297   0.27608
H          H       0.23233   0.43704   0.73002   0.23770
H          H       0.31004   0.57871   0.40482   0.28020
H          H       0.26877   0.58436   0.28493   0.23617
H          H       0.81024   0.57840   0.87879   0.27831
H          H       0.76996   0.58377   0.78471   0.23609
H          H       0.68976   0.44362   0.11092   0.27751
H          H       0.73195   0.43983   0.22846   0.23792
C          C       0.42100   0.84228   0.22065   0.20125
C          C       0.41220   0.80720   0.09479  -0.16534
C          C       0.38635   0.76145   0.09400  -0.13200
C          C       0.36926   0.74891   0.22317   0.07500
C          C       0.37834   0.78425   0.34941  -0.12557
C          C       0.40359   0.83004   0.34813  -0.18740
C          C       0.40021   0.70285   0.30018  -0.19022
C          C       0.36096   0.68074   0.25366   0.17084
C          C       0.36599   0.62627   0.27113   0.15550
C          C       0.25912   0.47373   0.19262  -0.17600
C          C       0.29467   0.49576   0.18885  -0.17379
C          C       0.31875   0.54428   0.25781   0.15351
C          C       0.26063   0.50820   0.26353   0.12936
C          C       0.35523   0.58307   0.26671  -0.11782
C          C       0.18723   0.50569   0.29528  -0.17905
C          C       0.19717   0.48031   0.27453  -0.19517
C          C       0.23439   0.51098   0.27720   0.13153
C          C       0.21781   0.55215   0.30328   0.15843
C          C       0.29026   0.69805   0.19264  -0.19925
C          C       0.25690   0.66865   0.21503  -0.19181
C          C       0.25392   0.63099   0.26583   0.16847
C          C       0.30821   0.67886   0.23171   0.18161
C          C       0.34465   0.70064   0.23325  -0.10778
C          C       0.22231   0.59159   0.29205  -0.07849
C          C       0.40321   0.67010   0.31099  -0.19532
C          C       0.38145   0.57716   0.26228   0.07407
C          C       0.19173   0.58928   0.29635   0.08048
C          C       0.39588   0.58959   0.12215  -0.11811
C          C       0.41593   0.57811   0.09872  -0.17547
C          C       0.42404   0.55574   0.22255   0.20877
C          C       0.41247   0.54660   0.37303  -0.18651
C          C       0.39072   0.55611   0.38938  -0.12768
C          C       0.15226   0.55113   0.16967  -0.12322
C          C       0.12255   0.54608   0.17842  -0.18331
C          C       0.13105   0.57923   0.31508   0.19971
C          C       0.17053   0.61859   0.43597  -0.16020
C          C       0.20028   0.62330   0.42794  -0.13158
C          C       0.57283   0.17582   0.21756   0.20128
C          C       0.56376   0.19109   0.05778  -0.17185
C          C       0.59052   0.23710   0.06340  -0.13509
C          C       0.62651   0.26981   0.23093   0.07756
C          C       0.63554   0.25438   0.38969  -0.12830
C          C       0.60930   0.20803   0.38324  -0.18835
C          C       0.59972   0.31935   0.21751  -0.18759
C          C       0.63776   0.34046   0.24334   0.16838
C          C       0.63394   0.39597   0.24331   0.15733
C          C       0.73945   0.54886   0.31262  -0.17796
C          C       0.70417   0.52653   0.31985  -0.17161
C          C       0.68076   0.47809   0.25499   0.15483
C          C       0.73845   0.51470   0.24435   0.12801
C          C       0.64461   0.43917   0.24864  -0.11893
C          C       0.81346   0.51938   0.22405  -0.18155
C          C       0.80266   0.54397   0.24038  -0.19465
C          C       0.76497   0.51250   0.23111   0.13362
C          C       0.78246   0.47236   0.20656   0.16069
C          C       0.70074   0.31721   0.21722  -0.19799
C          C       0.73531   0.34821   0.20723  -0.19093
C          C       0.74539   0.39218   0.22882   0.16637
C          C       0.68914   0.34183   0.24361   0.17943
C          C       0.65284   0.31990   0.24308  -0.10570
C          C       0.77808   0.43296   0.21400  -0.08130
C          C       0.59724   0.35249   0.21376  -0.19512
C          C       0.61763   0.44412   0.24773   0.07047
C          C       0.80818   0.43509   0.20481   0.07056
C          C       0.61005   0.46715   0.12570  -0.12335
C          C       0.58430   0.47167   0.12257  -0.18273
C          C       0.56631   0.45459   0.24721   0.20383
C          C       0.57386   0.43169   0.37054  -0.18336
C          C       0.59875   0.42624   0.36849  -0.12399
C          C       0.82224   0.45334   0.06682  -0.11942
C          C       0.85182   0.45746   0.06140  -0.18776
C          C       0.86806   0.44281   0.19219   0.20988
C          C       0.85244   0.42178   0.32207  -0.17790
C          C       0.82379   0.41918   0.33148  -0.12253
C          C       0.48135   0.52344   0.28261   0.06064
C          C       0.45278   0.47742   0.16334  -0.10968
C          C       0.46335   0.45489   0.11617  -0.12634
C          C       0.50296   0.47809   0.18927   0.05576
C          C       0.53161   0.52406   0.31021  -0.11309
C          C       0.52092   0.54626   0.35904  -0.12511
C          C       0.51536   0.45519   0.14693   0.07591
C          C       0.46950   0.54750   0.31906   0.07685
C          C       0.47271   0.96497   0.25226   0.06051
C          C       0.50946   0.98502   0.26904  -0.11221
C          C       0.53600   0.03116   0.27682  -0.13162
C          C       0.52638   0.05839   0.26304   0.05990
C          C       0.48974   0.03844   0.24751  -0.11219
C          C       0.46355   0.99259   0.24423  -0.13147
C          C       0.55415   0.10607   0.26039   0.06707
C          C       0.44393   0.91643   0.24155   0.06682
C          C       0.03398   0.52570   0.26636   0.06217
C          C       0.03567   0.55961   0.34430  -0.11470
C          C       0.00177   0.54795   0.32754  -0.12451
C          C       0.96537   0.50221   0.23441   0.05596
C          C       0.96366   0.46847   0.15510  -0.11036
C          C       0.99739   0.48016   0.17062  -0.13284
C          C       0.93079   0.49071   0.22955   0.07207
C          C       0.06774   0.53488   0.27293   0.06226
C          C       0.92317   0.83999   0.71879   0.20214
C          C       0.91402   0.80424   0.59590  -0.16771
C          C       0.88811   0.75896   0.59943  -0.13085
C          C       0.87169   0.74766   0.73117   0.07784
C          C       0.88162   0.78374   0.85673  -0.13103
C          C       0.90659   0.82905   0.84953  -0.18487
C          C       0.90201   0.70111   0.80963  -0.18988
C          C       0.86262   0.67922   0.75734   0.17011
C          C       0.86627   0.62368   0.75843   0.15228
C          C       0.75910   0.47175   0.68587  -0.17941
C          C       0.79393   0.49303   0.67548  -0.17208
C          C       0.81827   0.54171   0.74026   0.15676
C          C       0.76112   0.50684   0.75528   0.13396
C          C       0.85469   0.57993   0.74667  -0.11441
C          C       0.68775   0.50429   0.78739  -0.18386
C          C       0.69764   0.47894   0.76518  -0.19466
C          C       0.73516   0.50986   0.77136   0.13357
C          C       0.71875   0.55102   0.80070   0.16015
C          C       0.79329   0.69837   0.70574  -0.19914
C          C       0.75971   0.66902   0.72642  -0.19142
C          C       0.75563   0.63032   0.77004   0.16680
C          C       0.81026   0.67802   0.73847   0.18229
C          C       0.84672   0.69950   0.74121  -0.11221
C          C       0.72371   0.59083   0.79407  -0.07953
C          C       0.90413   0.66762   0.80987  -0.19493
C          C       0.88045   0.57378   0.73728   0.07445
C          C       0.69350   0.58913   0.80068   0.07996
C          C       0.89756   0.59038   0.60850  -0.11988
C          C       0.91846   0.58035   0.58387  -0.17472
C          C       0.92452   0.55490   0.69520   0.20898
C          C       0.90962   0.54076   0.83291  -0.18639
C          C       0.88744   0.54936   0.85112  -0.12950
C          C       0.65399   0.55263   0.66801  -0.12501
C          C       0.62464   0.54833   0.67798  -0.17950
C          C       0.63360   0.58045   0.82296   0.19760
C          C       0.67322   0.61848   0.94927  -0.15917
C          C       0.70259   0.62256   0.93911  -0.13221
C          C       0.07442   0.17179   0.70037   0.20008
C          C       0.06486   0.18696   0.54135  -0.16956
C          C       0.09080   0.23327   0.54925  -0.13632
C          C       0.12635   0.26630   0.71823   0.07655
C          C       0.13581   0.25107   0.87680  -0.12702
C          C       0.11043   0.20443   0.86806  -0.18576
C          C       0.09825   0.31511   0.69322  -0.18749
C          C       0.13682   0.33667   0.72754   0.16713
C          C       0.13280   0.39203   0.72670   0.15532
C          C       0.23961   0.54606   0.81668  -0.17575
C          C       0.20366   0.52321   0.81694  -0.17309
C          C       0.18046   0.47484   0.74978   0.15388
C          C       0.23923   0.51229   0.75067   0.12982
C          C       0.14386   0.43550   0.73741  -0.11840
C          C       0.31442   0.51704   0.73155  -0.18122
C          C       0.30379   0.54177   0.74956  -0.19623
C          C       0.26600   0.51030   0.73927   0.13019
C          C       0.28320   0.46995   0.71122   0.15960
C          C       0.20003   0.31369   0.70277  -0.19565
C          C       0.23483   0.34491   0.69537  -0.19312
C          C       0.24528   0.38904   0.72232   0.16840
C          C       0.18864   0.33839   0.73236   0.17847
C          C       0.15224   0.31639   0.73054  -0.10365
C          C       0.27846   0.43024   0.71307  -0.08073
C          C       0.09563   0.34816   0.68862  -0.19274
C          C       0.11687   0.44037   0.73732   0.07211
C          C       0.30872   0.43264   0.70422   0.07148
C          C       0.10902   0.46316   0.61496  -0.12303
C          C       0.08430   0.46896   0.61766  -0.18048
C          C       0.06748   0.45300   0.74723   0.20384
C          C       0.07496   0.42991   0.86928  -0.17750
C          C       0.09891   0.42333   0.86231  -0.12447
C          C       0.32401   0.45285   0.57212  -0.11822
C          C       0.35385   0.45752   0.56690  -0.18874
C          C       0.36924   0.44138   0.69233   0.20777
C          C       0.35226   0.41818   0.81496  -0.17690
C          C       0.32344   0.41517   0.82487  -0.12479
C          C       0.98311   0.52412   0.76513   0.05941
C          C       0.95536   0.47861   0.64152  -0.11089
C          C       0.96697   0.45706   0.59813  -0.12354
C          C       0.00668   0.48029   0.68317   0.05662
C          C       0.03449   0.52539   0.81145  -0.11631
C          C       0.02284   0.54713   0.85227  -0.12339
C          C       0.01964   0.45811   0.64149   0.07831
C          C       0.96994   0.54678   0.79849   0.07820
C          C       0.97406   0.96155   0.73476   0.06033
C          C       0.01141   0.98154   0.76226  -0.10998
C          C       0.03824   0.02753   0.76936  -0.13349
C          C       0.02840   0.05455   0.74544   0.06055
C          C       0.99120   0.03469   0.71980  -0.11033
C          C       0.96456   0.98892   0.71584  -0.13300
C          C       0.05662   0.10228   0.74528   0.06568
C          C       0.94517   0.91328   0.72589   0.06625
C          C       0.53664   0.52623   0.77824   0.06486
C          C       0.53787   0.56006   0.85239  -0.11577
C          C       0.50378   0.54786   0.83562  -0.12584
C          C       0.46761   0.50178   0.74581   0.05500
C          C       0.46639   0.46815   0.66997  -0.11047
C          C       0.50035   0.48031   0.68645  -0.13245
C          C       0.43276   0.48993   0.73904   0.07293
C          C       0.57055   0.53592   0.78359   0.06402
N          N       0.34157   0.63476   0.24003  -0.30328
N          N       0.29704   0.55021   0.30197  -0.30901
N          N       0.24600   0.55378   0.30050  -0.29805
N          N       0.28523   0.63760   0.27148  -0.43608
N          N       0.65745   0.38668   0.25895  -0.30764
N          N       0.70256   0.47254   0.21003  -0.30586
N          N       0.75354   0.46978   0.20447  -0.30473
N          N       0.71676   0.38742   0.25215  -0.43385
N          N       0.54733   0.46745   0.27523  -0.25118
N          N       0.43966   0.53887   0.18392  -0.26677
N          N       0.54435   0.12959   0.20880  -0.28042
N          N       0.44835   0.88791   0.22017  -0.28347
N          N       0.89916   0.44872   0.19420  -0.28363
N          N       0.10209   0.57567   0.33155  -0.29129
N          N       0.84222   0.63265   0.73069  -0.30543
N          N       0.79720   0.54834   0.78731  -0.30952
N          N       0.74701   0.55275   0.79823  -0.30009
N          N       0.78645   0.63620   0.77261  -0.43584
N          N       0.15668   0.38307   0.74647  -0.30643
N          N       0.20309   0.46988   0.71107  -0.30926
N          N       0.25440   0.46748   0.71040  -0.30287
N          N       0.21656   0.38416   0.74488  -0.43289
N          N       0.04868   0.46575   0.77865  -0.25887
N          N       0.94170   0.54015   0.65752  -0.26904
N          N       0.04649   0.12527   0.68862  -0.27808
N          N       0.95021   0.88510   0.71320  -0.28141
N          N       0.40070   0.44779   0.69654  -0.28110
N          N       0.60481   0.57687   0.84224  -0.29102

