data_crystal

_audit_creation_method 'AiiDA-DDEC plugin'

_cell_length_a        45.84986
_cell_length_b        46.20099
_cell_length_c         8.16949

_cell_angle_alpha     92.34493
_cell_angle_beta     87.31666
_cell_angle_gamma     90.03213

_symmetry_space_group_name_Hall 'P 1'
_symmetry_space_group_name_H-M  'P 1'

loop_
_symmetry_equiv_pos_as_xyz
 'x,y,z'

loop_
_atom_site_label
_atom_site_type_symbol
_atom_site_fract_x
_atom_site_fract_y
_atom_site_fract_z
_atom_site_charge
H          H       0.12866   0.33289   0.37081   0.07606
H          H       0.18181   0.36312   0.14214   0.30005
H          H       0.25413   0.80531   0.44646   0.11610
H          H       0.19074   0.25236   0.39783   0.11653
H          H       0.35141   0.20398   0.07050   0.10301
H          H       0.94457   0.60480   0.42140   0.10471
H          H       0.28095   0.15632   0.51104   0.35527
H          H       0.96935   0.60637   0.15417   0.11888
H          H       0.39799   0.94483   0.40085   0.10544
H          H       0.60896   0.03359   0.12308   0.11962
H          H       0.36028   0.90705   0.40352   0.11320
H          H       0.90586   0.64140   0.42243   0.10923
H          H       0.14937   0.28737   0.41945   0.10525
H          H       0.31454   0.24317   0.07421   0.12420
H          H       0.19225   0.74245   0.38963   0.12861
H          H       0.02773   0.60891   0.16288   0.12504
H          H       0.40428   0.13748   0.11984   0.10699
H          H       0.80621   0.26243   0.38327   0.12697
H          H       0.71155   0.15570   0.43860   0.10480
H          H       0.74655   0.19638   0.40537   0.11821
H          H       0.25968   0.19463   0.40701   0.12741
H          H       0.56237   0.89611   0.08625   0.10036
H          H       0.79485   0.34918   0.05659   0.11204
H          H       0.44349   0.10141   0.10795   0.09706
H          H       0.85883   0.40631   0.14716   0.11147
H          H       0.76337   0.68436   0.14172   0.14671
H          H       0.35159   0.08290   0.42855   0.12485
H          H       0.68518   0.23938   0.10926   0.14791
H          H       0.72005   0.85132   0.48192   0.35977
H          H       0.65488   0.79109   0.07547   0.10796
H          H       0.84739   0.28245   0.46247   0.35943
H          H       0.69169   0.75227   0.09506   0.12673
H          H       0.14086   0.59867   0.10153   0.10940
H          H       0.74190   0.80989   0.39991   0.12841
H          H       0.84503   0.36109   0.08097   0.06424
H          H       0.82223   0.63455   0.17766   0.30000
H          H       0.84911   0.71424   0.46063   0.10511
H          H       0.04839   0.60625   0.44072   0.10049
H          H       0.75483   0.31323   0.07164   0.12628
H          H       0.61232   0.97574   0.12871   0.12410
H          H       0.33377   0.87092   0.41419   0.09026
H          H       0.63589   0.17953   0.14629   0.29957
H          H       0.60120   0.86017   0.10301   0.10957
H          H       0.64811   0.91930   0.41443   0.12178
H          H       0.14950   0.41276   0.07609   0.12286
H          H       0.89486   0.54723   0.11787   0.10170
H          H       0.05641   0.39807   0.39383   0.10316
H          H       0.63700   0.83552   0.12217   0.05741
H          H       0.31486   0.76495   0.08476   0.14139
H          H       0.80842   0.74910   0.43265   0.11910
H          H       0.89422   0.46805   0.39033   0.13023
H          H       0.08449   0.64672   0.45022   0.12222
H          H       0.25079   0.68639   0.09599   0.12569
H          H       0.03530   0.39329   0.12209   0.12161
H          H       0.91641   0.35425   0.41362   0.12475
H          H       0.89195   0.52603   0.38672   0.12999
H          H       0.24165   0.31319   0.11394   0.14601
H          H       0.10544   0.55889   0.09622   0.09869
H          H       0.97688   0.39125   0.12756   0.12168
H          H       0.09460   0.36087   0.39031   0.10921
H          H       0.15068   0.72225   0.48050   0.36260
H          H       0.10883   0.53350   0.35969   0.13078
H          H       0.87114   0.66813   0.41000   0.07779
H          H       0.11041   0.44990   0.07877   0.10240
H          H       0.39201   0.04649   0.41811   0.10361
H          H       0.41597   0.85243   0.08213   0.13164
H          H       0.16913   0.63028   0.16039   0.05871
H          H       0.45339   0.89121   0.07823   0.10271
H          H       0.28793   0.84681   0.48227   0.10050
H          H       0.52427   0.10959   0.36497   0.13289
H          H       0.60801   0.95552   0.40023   0.10127
H          H       0.53530   0.89416   0.34768   0.13197
H          H       0.11123   0.47536   0.34679   0.12965
H          H       0.36939   0.16266   0.14352   0.05449
H          H       0.46581   0.10650   0.37097   0.13465
H          H       0.47690   0.89096   0.34261   0.13129
H          H       0.21251   0.64840   0.09580   0.10980
H          H       0.36686   0.83500   0.15808   0.26634
H          H       0.54916   0.10712   0.09845   0.10260
H          H       0.85501   0.58373   0.12163   0.12260
H          H       0.66613   0.13297   0.39042   0.07550
H          H       0.39209   0.02300   0.14142   0.12145
H          H       0.60474   0.05729   0.38859   0.10515
H          H       0.39529   0.96509   0.13169   0.11782
H          H       0.58513   0.14724   0.10249   0.12263
H          H       0.89676   0.44408   0.12605   0.09899
H          H       0.95419   0.39286   0.39704   0.10250
H          H       0.64129   0.09602   0.38477   0.10929
H          H       0.97752   0.49892   0.23320   0.27742
H          H       0.50299   0.97570   0.21951   0.27596
H          H       0.50012   0.02377   0.22556   0.27621
H          H       0.02589   0.50116   0.23520   0.27704
H          H       0.12679   0.33520   0.89323   0.07373
H          H       0.17792   0.36105   0.63429   0.29993
H          H       0.24838   0.81076   0.91562   0.11727
H          H       0.18752   0.25345   0.92699   0.11861
H          H       0.35057   0.20796   0.63176   0.10851
H          H       0.94138   0.60410   0.92261   0.10658
H          H       0.27256   0.14883   0.97465   0.36214
H          H       0.96570   0.60559   0.65189   0.11759
H          H       0.39560   0.94325   0.90904   0.10433
H          H       0.60569   0.03388   0.61784   0.11790
H          H       0.35881   0.90477   0.91141   0.10829
H          H       0.90317   0.64112   0.92002   0.10944
H          H       0.14716   0.28948   0.95053   0.10614
H          H       0.31216   0.24559   0.62833   0.12595
H          H       0.19190   0.73819   0.93780   0.12804
H          H       0.02398   0.60830   0.65178   0.12513
H          H       0.39944   0.13653   0.61912   0.10851
H          H       0.80928   0.25671   0.87239   0.13014
H          H       0.71180   0.14917   0.91741   0.10548
H          H       0.74733   0.18974   0.89593   0.11988
H          H       0.25283   0.18907   0.88705   0.12837
H          H       0.55996   0.89624   0.58910   0.09983
H          H       0.79174   0.34733   0.59000   0.11139
H          H       0.43933   0.10108   0.60605   0.09831
H          H       0.85925   0.40164   0.63095   0.11372
H          H       0.76183   0.68588   0.63201   0.14542
H          H       0.34849   0.08180   0.93565   0.12503
H          H       0.68450   0.23842   0.63833   0.14725
H          H       0.71900   0.85257   0.97947   0.36272
H          H       0.65260   0.79215   0.58065   0.10784
H          H       0.84981   0.27797   0.95685   0.36194
H          H       0.68952   0.75333   0.59650   0.12459
H          H       0.14200   0.59445   0.64004   0.11052
H          H       0.74070   0.81119   0.89487   0.12723
H          H       0.83726   0.36370   0.62183   0.05954
H          H       0.82045   0.63565   0.66692   0.30037
H          H       0.84555   0.71326   0.97300   0.10529
H          H       0.04405   0.60767   0.91754   0.10338
H          H       0.75257   0.31038   0.60650   0.12534
H          H       0.60932   0.97606   0.62478   0.12300
H          H       0.32960   0.87312   0.87387   0.07443
H          H       0.63403   0.17938   0.66254   0.30054
H          H       0.59940   0.86087   0.60258   0.10977
H          H       0.64643   0.92086   0.90786   0.12205
H          H       0.14792   0.41316   0.58799   0.12309
H          H       0.89149   0.54689   0.61786   0.10119
H          H       0.05283   0.39743   0.88328   0.10381
H          H       0.63450   0.83590   0.62994   0.05807
H          H       0.31441   0.75975   0.63928   0.14810
H          H       0.80555   0.74874   0.94230   0.11920
H          H       0.89133   0.46659   0.88094   0.13089
H          H       0.08156   0.64649   0.94282   0.12540
H          H       0.24417   0.69015   0.56716   0.12498
H          H       0.03295   0.39293   0.61668   0.11858
H          H       0.91633   0.35315   0.92102   0.12197
H          H       0.88847   0.52464   0.88158   0.13095
H          H       0.23673   0.30995   0.60634   0.14531
H          H       0.10462   0.55617   0.61416   0.09967
H          H       0.97455   0.39053   0.62906   0.12246
H          H       0.09072   0.35992   0.88143   0.10955
H          H       0.15069   0.71651   0.02645   0.35938
H          H       0.10466   0.53344   0.87279   0.12815
H          H       0.86745   0.66711   0.91904   0.07336
H          H       0.10891   0.45048   0.58635   0.10327
H          H       0.38930   0.04593   0.92257   0.10363
H          H       0.41425   0.85230   0.57875   0.12327
H          H       0.15506   0.64099   0.58690   0.06302
H          H       0.45121   0.89172   0.57642   0.10146
H          H       0.28313   0.85209   0.93115   0.10429
H          H       0.52128   0.10964   0.86285   0.13040
H          H       0.60581   0.95661   0.89617   0.10206
H          H       0.53299   0.89434   0.84851   0.12987
H          H       0.10748   0.47540   0.85866   0.12830
H          H       0.36922   0.16617   0.70602   0.05454
H          H       0.46282   0.10665   0.86706   0.13031
H          H       0.47462   0.89071   0.84083   0.12946
H          H       0.20449   0.65400   0.54642   0.10955
H          H       0.36416   0.81944   0.66222   0.29923
H          H       0.54649   0.10758   0.59832   0.10194
H          H       0.85213   0.58380   0.61846   0.12303
H          H       0.66597   0.12795   0.86736   0.07712
H          H       0.38900   0.02259   0.64492   0.12288
H          H       0.60094   0.05663   0.88859   0.10494
H          H       0.39233   0.96461   0.63792   0.11922
H          H       0.58334   0.14702   0.60175   0.12285
H          H       0.89527   0.44079   0.61716   0.09920
H          H       0.95244   0.39353   0.91081   0.10240
H          H       0.63808   0.09480   0.88708   0.10958
H          H       0.97475   0.49868   0.73507   0.27606
H          H       0.50023   0.97578   0.72181   0.27608
H          H       0.49715   0.02382   0.72383   0.27644
H          H       0.02331   0.50058   0.72445   0.27787
C          C       0.02331   0.56252   0.24003   0.19080
C          C       0.05285   0.55557   0.26412  -0.06876
C          C       0.06318   0.52719   0.28312   0.18232
C          C       0.09167   0.51859   0.32691  -0.18921
C          C       0.14764   0.33962   0.29484   0.07620
C          C       0.11551   0.62556   0.28090   0.19656
C          C       0.07440   0.57940   0.26987   0.07423
C          C       0.19839   0.32715   0.19215   0.31537
C          C       0.21891   0.28045   0.25386   0.15813
C          C       0.19240   0.27302   0.33928  -0.17048
C          C       0.16960   0.29261   0.35168  -0.10735
C          C       0.17182   0.31985   0.27949  -0.08143
C          C       0.24235   0.26053   0.24460  -0.09189
C          C       0.97572   0.56063   0.23790   0.19418
C          C       0.09286   0.48878   0.32014  -0.19124
C          C       0.06510   0.47801   0.27206   0.18098
C          C       0.05693   0.44888   0.24111  -0.07522
C          C       0.01367   0.59084   0.19152  -0.18952
C          C       0.08034   0.42677   0.23638   0.07658
C          C       0.06869   0.60479   0.36704  -0.12260
C          C       0.22164   0.30744   0.18127  -0.25250
C          C       0.98404   0.58956   0.18833  -0.19229
C          C       0.12122   0.60032   0.18137  -0.16963
C          C       0.08876   0.62732   0.37282  -0.14875
C          C       0.10112   0.57782   0.17701  -0.12446
C          C       0.12512   0.38404   0.23154   0.19661
C          C       0.30095   0.17484   0.33444   0.28669
C          C       0.27985   0.19659   0.33259  -0.30334
C          C       0.28427   0.22146   0.23999   0.16269
C          C       0.31079   0.22424   0.14671  -0.16488
C          C       0.33128   0.20223   0.14555  -0.11334
C          C       0.32730   0.17698   0.23633  -0.04357
C          C       0.15994   0.64940   0.22942   0.07920
C          C       0.26211   0.24270   0.24117  -0.10081
C          C       0.10717   0.43057   0.14880  -0.12396
C          C       0.12907   0.40974   0.14651  -0.15989
C          C       0.09831   0.38000   0.31910  -0.17718
C          C       0.07660   0.40096   0.32138  -0.11337
C          C       0.98012   0.43789   0.22287   0.19282
C          C       0.95030   0.44492   0.25773  -0.06666
C          C       0.94006   0.47348   0.29177   0.18193
C          C       0.91150   0.48250   0.35128  -0.18736
C          C       0.92834   0.42147   0.26103   0.06712
C          C       0.02787   0.43967   0.21668   0.19140
C          C       0.91036   0.51226   0.35056  -0.19396
C          C       0.93826   0.52258   0.29299   0.18479
C          C       0.94649   0.55153   0.26603  -0.07397
C          C       0.92277   0.57322   0.26922   0.07724
C          C       0.93360   0.39541   0.33864  -0.12136
C          C       0.89686   0.56763   0.18752  -0.12657
C          C       0.87459   0.58804   0.18890  -0.15762
C          C       0.90307   0.62095   0.35421  -0.17721
C          C       0.92513   0.60035   0.35344  -0.11389
C          C       0.99043   0.40941   0.16304  -0.18815
C          C       0.02014   0.41048   0.15982  -0.19635
C          C       0.91255   0.37387   0.34877  -0.15626
C          C       0.90099   0.42458   0.19128  -0.11935
C          C       0.87727   0.61517   0.27137   0.19862
C          C       0.88522   0.37725   0.28015   0.20264
C          C       0.87977   0.40312   0.20124  -0.17839
C          C       0.85348   0.66030   0.33363   0.07662
C          C       0.80476   0.67125   0.22679   0.30788
C          C       0.78323   0.71895   0.28597   0.15859
C          C       0.80790   0.72752   0.37491  -0.17193
C          C       0.83036   0.70806   0.38995  -0.10796
C          C       0.82957   0.67980   0.31697  -0.08594
C          C       0.76041   0.73901   0.27005  -0.09160
C          C       0.84549   0.34955   0.19613   0.09347
C          C       0.70136   0.82728   0.32350   0.27818
C          C       0.72269   0.80584   0.32880  -0.30357
C          C       0.71948   0.77849   0.24847   0.16211
C          C       0.69432   0.77314   0.15871  -0.16041
C          C       0.67382   0.79494   0.14895  -0.11305
C          C       0.67630   0.82243   0.22979  -0.05108
C          C       0.74126   0.75716   0.25907  -0.10051
C          C       0.78185   0.69089   0.21319  -0.25032
C          C       0.43855   0.02029   0.22376   0.19301
C          C       0.44490   0.04994   0.25547  -0.06751
C          C       0.47320   0.06071   0.28171   0.18241
C          C       0.48118   0.08940   0.33507  -0.19273
C          C       0.42078   0.07124   0.26206   0.07131
C          C       0.44115   0.97304   0.21591   0.19130
C          C       0.51119   0.09095   0.33191  -0.19495
C          C       0.52271   0.06325   0.27661   0.18378
C          C       0.55231   0.05541   0.24508  -0.07572
C          C       0.57398   0.07917   0.24492   0.07330
C          C       0.39428   0.06616   0.35014  -0.12244
C          C       0.56890   0.10512   0.16584  -0.12173
C          C       0.58913   0.12753   0.16641  -0.15900
C          C       0.62119   0.09890   0.32174  -0.17658
C          C       0.60063   0.07679   0.32323  -0.11346
C          C       0.41040   0.00976   0.17118  -0.18603
C          C       0.41203   0.98033   0.16631  -0.19283
C          C       0.37177   0.08637   0.35674  -0.14700
C          C       0.42354   0.09754   0.18075  -0.12599
C          C       0.61571   0.12489   0.24391   0.19748
C          C       0.37468   0.11267   0.27636   0.19947
C          C       0.40119   0.11784   0.18747  -0.17468
C          C       0.65947   0.14985   0.30919   0.08288
C          C       0.67159   0.19800   0.19601   0.30973
C          C       0.71817   0.22061   0.25517   0.15853
C          C       0.72579   0.19644   0.34662  -0.17376
C          C       0.70628   0.17388   0.36440  -0.10651
C          C       0.67904   0.17386   0.29008  -0.08495
C          C       0.73809   0.24385   0.24131  -0.09119
C          C       0.35081   0.15586   0.22325   0.08528
C          C       0.82571   0.30237   0.30840   0.27827
C          C       0.80366   0.28157   0.31185  -0.30346
C          C       0.77769   0.28519   0.22904   0.16071
C          C       0.77442   0.31035   0.13900  -0.16333
C          C       0.79700   0.33032   0.13075  -0.11442
C          C       0.82299   0.32732   0.21463  -0.04612
C          C       0.75605   0.26342   0.23508  -0.10169
C          C       0.69108   0.22121   0.18130  -0.25664
C          C       0.56468   0.97919   0.21488   0.19177
C          C       0.55791   0.94972   0.24093  -0.06906
C          C       0.52919   0.93917   0.26604   0.18108
C          C       0.52045   0.91090   0.31461  -0.18887
C          C       0.58198   0.92848   0.24442   0.07363
C          C       0.56208   0.02648   0.21457   0.19225
C          C       0.49048   0.90930   0.31239  -0.19406
C          C       0.47977   0.93658   0.26361   0.18275
C          C       0.45060   0.94435   0.23868  -0.07305
C          C       0.42857   0.92098   0.23978   0.06971
C          C       0.60696   0.93480   0.33305  -0.12726
C          C       0.43321   0.89440   0.15186  -0.11741
C          C       0.41222   0.87266   0.15312  -0.17372
C          C       0.38050   0.90331   0.33090  -0.18732
C          C       0.40174   0.92473   0.32941  -0.10734
C          C       0.59353   0.98930   0.16110  -0.18959
C          C       0.59184   0.01871   0.15928  -0.19528
C          C       0.62929   0.91467   0.34156  -0.14484
C          C       0.58079   0.90107   0.16176  -0.12162
C          C       0.38552   0.87692   0.24248   0.20223
C          C       0.62775   0.88712   0.26196   0.20066
C          C       0.60298   0.88080   0.17070  -0.17284
C          C       0.33951   0.85349   0.32453   0.07536
C          C       0.32893   0.80636   0.18503   0.34139
C          C       0.28256   0.78266   0.26248   0.16052
C          C       0.27458   0.80636   0.37462  -0.17965
C          C       0.29338   0.82915   0.39387  -0.10701
C          C       0.32053   0.83001   0.30225  -0.09869
C          C       0.26297   0.75917   0.24951  -0.07856
C          C       0.65308   0.84326   0.20987   0.08502
C          C       0.17492   0.70059   0.32341   0.27575
C          C       0.19646   0.72191   0.32276  -0.30250
C          C       0.22410   0.71720   0.24282   0.16578
C          C       0.22980   0.69017   0.16057  -0.15635
C          C       0.20818   0.66922   0.15976  -0.11049
C          C       0.18029   0.67345   0.23867  -0.04280
C          C       0.24522   0.73940   0.24606  -0.10880
C          C       0.30893   0.78276   0.17076  -0.25801
C          C       0.02018   0.56206   0.73365   0.19207
C          C       0.04976   0.55530   0.75883  -0.06568
C          C       0.05995   0.52696   0.78179   0.18312
C          C       0.08797   0.51850   0.83381  -0.18775
C          C       0.14510   0.34034   0.80813   0.08320
C          C       0.11405   0.62357   0.79113   0.20533
C          C       0.07151   0.57892   0.76489   0.06713
C          C       0.19448   0.32557   0.69291   0.31314
C          C       0.21476   0.27932   0.76489   0.15704
C          C       0.18898   0.27340   0.86120  -0.17429
C          C       0.16672   0.29358   0.87433  -0.10711
C          C       0.16871   0.31989   0.79192  -0.08787
C          C       0.23771   0.25884   0.75573  -0.08563
C          C       0.97250   0.55999   0.73614   0.19048
C          C       0.08938   0.48872   0.82668  -0.19138
C          C       0.06222   0.47783   0.77075   0.18372
C          C       0.05441   0.44867   0.73794  -0.07376
C          C       0.01025   0.59016   0.68365  -0.19192
C          C       0.07791   0.42678   0.73584   0.07369
C          C       0.06526   0.60516   0.85376  -0.12303
C          C       0.21730   0.30535   0.68210  -0.24999
C          C       0.98058   0.58884   0.68446  -0.19176
C          C       0.12047   0.59760   0.70003  -0.18064
C          C       0.08606   0.62684   0.86817  -0.15631
C          C       0.09954   0.57589   0.68716  -0.12022
C          C       0.12251   0.38400   0.73495   0.19746
C          C       0.29600   0.17193   0.83296   0.28173
C          C       0.27429   0.19306   0.82971  -0.30817
C          C       0.27964   0.21988   0.75717   0.16454
C          C       0.30775   0.22521   0.68650  -0.15902
C          C       0.32908   0.20404   0.68892  -0.11269
C          C       0.32423   0.17697   0.75997  -0.03841
C          C       0.15384   0.65206   0.70913   0.09365
C          C       0.25719   0.24072   0.75509  -0.10650
C          C       0.10526   0.43095   0.65429  -0.12084
C          C       0.12708   0.41005   0.65418  -0.15959
C          C       0.09515   0.37958   0.81598  -0.17633
C          C       0.07356   0.40062   0.81664  -0.11406
C          C       0.97781   0.43734   0.72131   0.19328
C          C       0.94800   0.44419   0.75741  -0.07144
C          C       0.93739   0.47267   0.78891   0.18244
C          C       0.90857   0.48136   0.84544  -0.19037
C          C       0.92658   0.42025   0.76357   0.07553
C          C       0.02550   0.43933   0.71164   0.19303
C          C       0.90715   0.51114   0.84612  -0.19240
C          C       0.93510   0.52182   0.79137   0.18091
C          C       0.94326   0.55084   0.76552  -0.07321
C          C       0.91962   0.57269   0.76853   0.07631
C          C       0.93225   0.39490   0.84691  -0.12442
C          C       0.89373   0.56737   0.68608  -0.12637
C          C       0.87170   0.58802   0.68582  -0.15801
C          C       0.90030   0.62068   0.85185  -0.17684
C          C       0.92212   0.59982   0.85269  -0.11305
C          C       0.98813   0.40882   0.66192  -0.18881
C          C       0.01782   0.41008   0.65557  -0.19260
C          C       0.91214   0.37239   0.85332  -0.14846
C          C       0.89971   0.42187   0.68695  -0.12241
C          C       0.87457   0.61516   0.76800   0.19817
C          C       0.88537   0.37412   0.77643   0.19631
C          C       0.87947   0.39953   0.69380  -0.17355
C          C       0.85051   0.66003   0.83575   0.08181
C          C       0.80276   0.67211   0.72048   0.30842
C          C       0.78123   0.71968   0.78401   0.15688
C          C       0.80528   0.72753   0.87981  -0.17253
C          C       0.82738   0.70771   0.89639  -0.10880
C          C       0.82693   0.67990   0.81755  -0.08401
C          C       0.75870   0.74004   0.76742  -0.08851
C          C       0.84326   0.34785   0.71147   0.08441
C          C       0.70010   0.82866   0.82103   0.27803
C          C       0.72132   0.80710   0.82539  -0.30261
C          C       0.71784   0.77963   0.74668   0.16399
C          C       0.69238   0.77423   0.65954  -0.15824
C          C       0.67186   0.79605   0.65147  -0.11313
C          C       0.67469   0.82369   0.73033  -0.04905
C          C       0.73958   0.75825   0.75658  -0.10372
C          C       0.78005   0.69198   0.70640  -0.25321
C          C       0.43557   0.02011   0.72545   0.19290
C          C       0.44184   0.04982   0.75620  -0.07035
C          C       0.47016   0.06075   0.77984   0.18426
C          C       0.47817   0.08950   0.83214  -0.19028
C          C       0.41760   0.07101   0.76539   0.07233
C          C       0.43834   0.97285   0.71888   0.19139
C          C       0.50818   0.09104   0.82930  -0.19152
C          C       0.51962   0.06333   0.77408   0.18450
C          C       0.54915   0.05548   0.74216  -0.07516
C          C       0.57094   0.07905   0.74283   0.07456
C          C       0.39134   0.06574   0.85580  -0.12305
C          C       0.56627   0.10516   0.66463  -0.12495
C          C       0.58692   0.12720   0.66553  -0.15896
C          C       0.61828   0.09789   0.82169  -0.17820
C          C       0.59739   0.07615   0.82230  -0.11151
C          C       0.40736   0.00941   0.67459  -0.18821
C          C       0.40908   0.97997   0.67075  -0.19578
C          C       0.36860   0.08570   0.86397  -0.14692
C          C       0.41984   0.09722   0.68287  -0.12323
C          C       0.61340   0.12394   0.74324   0.19789
C          C       0.37114   0.11203   0.78352   0.19569
C          C       0.39725   0.11730   0.69115  -0.17313
C          C       0.65858   0.14656   0.80100   0.07724
C          C       0.67060   0.19618   0.70971   0.31284
C          C       0.71820   0.21674   0.76582   0.15887
C          C       0.72606   0.19110   0.84367  -0.17406
C          C       0.70625   0.16868   0.85514  -0.10686
C          C       0.67840   0.17044   0.78888  -0.08537
C          C       0.73860   0.23956   0.75394  -0.08987
C          C       0.34858   0.15681   0.75405   0.08033
C          C       0.82667   0.29830   0.81061   0.28144
C          C       0.80538   0.27672   0.81082  -0.30676
C          C       0.77831   0.28074   0.73956   0.16101
C          C       0.77325   0.30698   0.66261  -0.15833
C          C       0.79520   0.32758   0.65476  -0.11082
C          C       0.82229   0.32433   0.72785  -0.04406
C          C       0.75694   0.25876   0.74605  -0.10307
C          C       0.69051   0.21910   0.70048  -0.25117
C          C       0.56180   0.97941   0.71291   0.19393
C          C       0.55528   0.94997   0.74096  -0.06832
C          C       0.52664   0.93932   0.76733   0.18249
C          C       0.51806   0.91099   0.81536  -0.18574
C          C       0.57961   0.92900   0.74404   0.07205
C          C       0.55897   0.02661   0.71127   0.19386
C          C       0.48810   0.90921   0.81252  -0.19487
C          C       0.47721   0.93652   0.76503   0.18340
C          C       0.44795   0.94419   0.74116  -0.07405
C          C       0.42611   0.92060   0.74142   0.07525
C          C       0.60478   0.93579   0.83000  -0.12676
C          C       0.43105   0.89434   0.65089  -0.12363
C          C       0.41039   0.87228   0.65165  -0.16180
C          C       0.37864   0.90175   0.83448  -0.18296
C          C       0.39942   0.92360   0.83360  -0.11422
C          C       0.59052   0.98957   0.65745  -0.18874
C          C       0.58869   0.01894   0.65488  -0.19082
C          C       0.62739   0.91594   0.83729  -0.14558
C          C       0.57856   0.90148   0.66258  -0.12286
C          C       0.38370   0.87561   0.74267   0.19714
C          C       0.62598   0.88826   0.75931   0.20062
C          C       0.60106   0.88152   0.67013  -0.17348
C          C       0.33779   0.85364   0.80533   0.07694
C          C       0.32713   0.80295   0.71198   0.31893
C          C       0.27913   0.78258   0.77552   0.16017
C          C       0.27020   0.80901   0.85824  -0.16950
C          C       0.28961   0.83181   0.86710  -0.10930
C          C       0.31821   0.82955   0.79501  -0.07923
C          C       0.25928   0.75922   0.76627  -0.09178
C          C       0.65125   0.84431   0.71173   0.08576
C          C       0.17294   0.69849   0.84630   0.28031
C          C       0.19475   0.71952   0.85294  -0.30302
C          C       0.22072   0.71692   0.75378   0.16064
C          C       0.22446   0.69240   0.64570  -0.16282
C          C       0.20212   0.67224   0.63480  -0.11553
C          C       0.17601   0.67437   0.73323  -0.04871
C          C       0.24184   0.73920   0.76022  -0.10073
C          C       0.30747   0.77979   0.70358  -0.25011
N          N      -0.00000   0.54422   0.26202  -0.40428
N          N       0.04770   0.50197   0.25534  -0.25649
N          N       0.14845   0.36433   0.22182  -0.29982
N          N       0.13379   0.64977   0.29643  -0.27807
N          N       0.00323   0.45624   0.24834  -0.40591
N          N       0.95567   0.49846   0.26336  -0.25289
N          N       0.85396   0.63454   0.26088  -0.29757
N          N       0.86482   0.35501   0.30330  -0.27346
N          N       0.45727   0.99764   0.24405  -0.40370
N          N       0.49895   0.04554   0.25229  -0.25366
N          N       0.63496   0.14842   0.23335  -0.30114
N          N       0.35062   0.13146   0.29563  -0.27706
N          N       0.54565   0.00207   0.24086  -0.40424
N          N       0.50386   0.95409   0.24064  -0.25400
N          N       0.36485   0.85464   0.23771  -0.22079
N          N       0.65109   0.86837   0.28579  -0.27686
N          N       0.99693   0.54373   0.75892  -0.40385
N          N       0.04490   0.50164   0.74961  -0.25393
N          N       0.14562   0.36405   0.72562  -0.30154
N          N       0.13403   0.64590   0.81969  -0.26854
N          N       0.00084   0.45584   0.74419  -0.40563
N          N       0.95280   0.49785   0.76229  -0.25469
N          N       0.85150   0.63480   0.75681  -0.29641
N          N       0.86663   0.35029   0.79397  -0.28023
N          N       0.45442   0.99755   0.74533  -0.40332
N          N       0.49589   0.04560   0.75011  -0.25389
N          N       0.63309   0.14711   0.73541  -0.29896
N          N       0.34675   0.13034   0.79922  -0.26626
N          N       0.54267   0.00219   0.73902  -0.40490
N          N       0.50121   0.95417   0.74274  -0.25500
N          N       0.36408   0.85238   0.73528  -0.29862
N          N       0.64969   0.86989   0.78226  -0.27891
O          O       0.20143   0.35265   0.12004  -0.41520
O          O       0.29651   0.15141   0.42925  -0.42162
O          O       0.80314   0.64479   0.15288  -0.41242
O          O       0.70418   0.85319   0.40775  -0.41840
O          O       0.64613   0.19873   0.12105  -0.41500
O          O       0.85057   0.29861   0.39100  -0.42669
O          O       0.35316   0.80694   0.09924  -0.47526
O          O       0.14858   0.70541   0.40637  -0.42446
O          O       0.19713   0.34996   0.60953  -0.41514
O          O       0.29041   0.14629   0.90623  -0.42018
O          O       0.80153   0.64610   0.64119  -0.41373
O          O       0.70348   0.85470   0.90345  -0.42247
O          O       0.64462   0.19860   0.64198  -0.41371
O          O       0.85212   0.29458   0.88785  -0.42582
O          O       0.35393   0.79992   0.64045  -0.41081
O          O       0.14789   0.70128   0.94283  -0.42540

