data_crystal

_audit_creation_method 'AiiDA-DDEC plugin'

_cell_length_a        45.91370
_cell_length_b        45.98419
_cell_length_c         8.12482

_cell_angle_alpha     89.88049
_cell_angle_beta     95.96662
_cell_angle_gamma     90.00807

_symmetry_space_group_name_Hall 'P 1'
_symmetry_space_group_name_H-M  'P 1'

loop_
_symmetry_equiv_pos_as_xyz
 'x,y,z'

loop_
_atom_site_label
_atom_site_type_symbol
_atom_site_fract_x
_atom_site_fract_y
_atom_site_fract_z
_atom_site_charge
Cu         Cu      0.00285   0.50142   0.26276   0.65485
Cu         Cu      0.50280   0.00174   0.24554   0.65697
Cu         Cu      0.99654   0.49842   0.75978   0.65670
Cu         Cu      0.49621   0.99845   0.74517   0.65585
H          H       0.13712   0.33525   0.40145   0.07357
H          H       0.17970   0.36697   0.14431   0.29975
H          H       0.25535   0.81385   0.40861   0.11923
H          H       0.20128   0.25485   0.40886   0.11929
H          H       0.34749   0.20730   0.03276   0.11178
H          H       0.94822   0.60580   0.39572   0.10402
H          H       0.28389   0.15123   0.43553   0.35999
H          H       0.96821   0.60795   0.14282   0.12272
H          H       0.40114   0.94722   0.38053   0.10164
H          H       0.60856   0.03519   0.15630   0.12259
H          H       0.36394   0.90908   0.38195   0.10756
H          H       0.90842   0.64126   0.39406   0.10782
H          H       0.16063   0.28912   0.44606   0.10352
H          H       0.31245   0.24787   0.05329   0.12295
H          H       0.19393   0.74461   0.40256   0.12905
H          H       0.02679   0.61005   0.15520   0.12578
H          H       0.40356   0.14237   0.10880   0.11111
H          H       0.80596   0.26587   0.36982   0.12730
H          H       0.71378   0.16351   0.47009   0.10493
H          H       0.74693   0.20505   0.42817   0.11807
H          H       0.26326   0.19379   0.35909   0.12887
H          H       0.55713   0.89820   0.11306   0.10051
H          H       0.79244   0.35261   0.00865   0.11062
H          H       0.44270   0.10628   0.09493   0.10093
H          H       0.85776   0.40927   0.12530   0.11213
H          H       0.75862   0.68500   0.11762   0.14621
H          H       0.35708   0.08274   0.39505   0.12112
H          H       0.68060   0.24212   0.07086   0.14827
H          H       0.72585   0.84916   0.48552   0.35998
H          H       0.65081   0.79596   0.04920   0.10975
H          H       0.84912   0.28466   0.45973   0.36158
H          H       0.68657   0.75533   0.07201   0.12365
H          H       0.14344   0.59648   0.16235   0.11121
H          H       0.74386   0.80693   0.40951   0.12875
H          H       0.84088   0.36624   0.06362   0.06244
H          H       0.81849   0.63485   0.14743   0.30174
H          H       0.85036   0.70876   0.47443   0.10480
H          H       0.05195   0.60841   0.43119   0.10278
H          H       0.75131   0.31789   0.01972   0.12372
H          H       0.61097   0.97669   0.16174   0.12554
H          H       0.33552   0.87606   0.36094   0.07306
H          H       0.63390   0.18097   0.12392   0.29890
H          H       0.59560   0.86062   0.13027   0.11069
H          H       0.65156   0.91587   0.45078   0.12370
H          H       0.14838   0.41901   0.11799   0.12209
H          H       0.89242   0.54782   0.09463   0.10622
H          H       0.06073   0.39596   0.40177   0.10761
H          H       0.63779   0.84400   0.08788   0.06186
H          H       0.31605   0.76145   0.16274   0.14992
H          H       0.80928   0.74425   0.44727   0.11850
H          H       0.89943   0.46852   0.38921   0.12209
H          H       0.08862   0.64842   0.44372   0.12369
H          H       0.24816   0.69001   0.12930   0.12566
H          H       0.03364   0.39550   0.13922   0.12116
H          H       0.91931   0.35512   0.41892   0.12197
H          H       0.89670   0.52687   0.37783   0.12013
H          H       0.23928   0.31850   0.10071   0.14736
H          H       0.10639   0.55765   0.14236   0.10236
H          H       0.97548   0.39296   0.14703   0.12560
H          H       0.09888   0.35906   0.38713   0.11026
H          H       0.15222   0.72468   0.46763   0.36033
H          H       0.11088   0.53403   0.40643   0.12549
H          H       0.87143   0.66365   0.41185   0.07302
H          H       0.10881   0.45564   0.12650   0.10333
H          H       0.39735   0.04669   0.38569   0.10003
H          H       0.41610   0.85335   0.10368   0.12317
H          H       0.16042   0.63866   0.11871   0.06217
H          H       0.45344   0.89246   0.10154   0.10492
H          H       0.29029   0.85533   0.41595   0.10381
H          H       0.52865   0.11103   0.34770   0.12497
H          H       0.61261   0.95376   0.43207   0.10123
H          H       0.53812   0.89613   0.38079   0.12298
H          H       0.11302   0.47570   0.39802   0.12714
H          H       0.36161   0.15957   0.06578   0.06010
H          H       0.47038   0.10764   0.35764   0.12639
H          H       0.47946   0.89411   0.37716   0.12478
H          H       0.20861   0.65303   0.10313   0.11068
H          H       0.36624   0.82109   0.17323   0.29912
H          H       0.54788   0.10753   0.07740   0.10295
H          H       0.85162   0.58332   0.09405   0.12367
H          H       0.66824   0.13864   0.41436   0.07411
H          H       0.39212   0.02616   0.11259   0.12570
H          H       0.60804   0.06114   0.42192   0.10298
H          H       0.39487   0.96787   0.10738   0.12286
H          H       0.58366   0.14795   0.07253   0.12195
H          H       0.89561   0.44717   0.11579   0.10328
H          H       0.95745   0.39359   0.40911   0.10191
H          H       0.64376   0.10065   0.41703   0.10961
H          H       0.12585   0.32954   0.87441   0.07361
H          H       0.17681   0.36470   0.68847   0.30085
H          H       0.25310   0.80334   0.91309   0.11832
H          H       0.18863   0.24829   0.90053   0.11968
H          H       0.34151   0.20650   0.56365   0.11317
H          H       0.94436   0.60048   0.91414   0.10086
H          H       0.27580   0.14391   0.92792   0.36489
H          H       0.96253   0.60510   0.64237   0.12116
H          H       0.39481   0.94291   0.88583   0.10196
H          H       0.59995   0.03170   0.62312   0.12070
H          H       0.35775   0.90449   0.88240   0.10909
H          H       0.90714   0.63858   0.91897   0.10721
H          H       0.14776   0.28324   0.92170   0.10624
H          H       0.30554   0.24589   0.59394   0.12807
H          H       0.19407   0.73774   0.89651   0.12876
H          H       0.02122   0.60665   0.64726   0.12539
H          H       0.39921   0.14085   0.62973   0.11243
H          H       0.81239   0.25594   0.91467   0.12572
H          H       0.71378   0.14677   0.97888   0.10572
H          H       0.74959   0.18680   0.95479   0.11957
H          H       0.25545   0.18699   0.86717   0.12765
H          H       0.55264   0.89343   0.62732   0.10303
H          H       0.78974   0.33855   0.53074   0.11186
H          H       0.43759   0.10410   0.60728   0.10560
H          H       0.85415   0.40032   0.60456   0.11222
H          H       0.75911   0.68966   0.63219   0.14677
H          H       0.35094   0.08004   0.89823   0.12240
H          H       0.68491   0.23295   0.62729   0.15070
H          H       0.72445   0.85327   0.99414   0.36164
H          H       0.65197   0.79803   0.55292   0.11067
H          H       0.85487   0.27825   0.98671   0.36228
H          H       0.68884   0.75842   0.58000   0.12701
H          H       0.13823   0.59174   0.66792   0.11123
H          H       0.74355   0.81147   0.92288   0.12756
H          H       0.83913   0.35466   0.56526   0.06584
H          H       0.81790   0.63833   0.65644   0.30118
H          H       0.85186   0.71161   0.98369   0.10607
H          H       0.04574   0.60591   0.92371   0.09991
H          H       0.75176   0.30114   0.56214   0.12527
H          H       0.60298   0.97336   0.63845   0.12212
H          H       0.33186   0.86844   0.88236   0.07286
H          H       0.63374   0.17513   0.65992   0.29912
H          H       0.59355   0.85846   0.64309   0.11088
H          H       0.64754   0.91883   0.94009   0.12339
H          H       0.14229   0.41551   0.62190   0.12248
H          H       0.88640   0.54981   0.58052   0.10536
H          H       0.05570   0.39451   0.91880   0.10170
H          H       0.63680   0.84476   0.59195   0.06267
H          H       0.31312   0.75674   0.63142   0.14838
H          H       0.81143   0.74784   0.96043   0.11639
H          H       0.89090   0.46572   0.85347   0.12417
H          H       0.08330   0.64525   0.93999   0.12233
H          H       0.24321   0.68119   0.60511   0.12632
H          H       0.02801   0.39186   0.65089   0.12395
H          H       0.91491   0.35387   0.94755   0.12177
H          H       0.88871   0.52423   0.84745   0.12398
H          H       0.23624   0.31479   0.66236   0.14789
H          H       0.10060   0.55346   0.64710   0.10098
H          H       0.96967   0.38918   0.66168   0.12688
H          H       0.09501   0.35854   0.92134   0.11126
H          H       0.15240   0.71964   0.97146   0.35840
H          H       0.10458   0.53092   0.90971   0.12473
H          H       0.87222   0.66613   0.91529   0.07663
H          H       0.10194   0.45157   0.61837   0.10290
H          H       0.39044   0.04334   0.88108   0.10406
H          H       0.41042   0.85017   0.59914   0.12430
H          H       0.15526   0.63275   0.62071   0.06143
H          H       0.44705   0.88982   0.59650   0.10705
H          H       0.28707   0.84555   0.93428   0.10619
H          H       0.52297   0.10681   0.86214   0.12319
H          H       0.60610   0.95416   0.92265   0.10154
H          H       0.53207   0.89291   0.88199   0.12524
H          H       0.10695   0.47265   0.89310   0.12613
H          H       0.35443   0.15638   0.57104   0.06524
H          H       0.46475   0.10393   0.86886   0.12223
H          H       0.47348   0.89029   0.87104   0.12363
H          H       0.20244   0.64561   0.59179   0.10969
H          H       0.36126   0.81824   0.65538   0.29808
H          H       0.54220   0.10717   0.59971   0.10516
H          H       0.84841   0.58808   0.58395   0.12396
H          H       0.66638   0.12558   0.91521   0.07817
H          H       0.38578   0.02307   0.61147   0.12763
H          H       0.60191   0.05277   0.90165   0.10311
H          H       0.38822   0.96470   0.61465   0.12448
H          H       0.58031   0.14570   0.60442   0.12373
H          H       0.89021   0.43972   0.59033   0.10154
H          H       0.95129   0.39377   0.93193   0.09841
H          H       0.63981   0.09048   0.90734   0.10781
C          C       0.02436   0.56350   0.23696   0.18739
C          C       0.05418   0.55639   0.27534  -0.06252
C          C       0.06378   0.52763   0.30737   0.18716
C          C       0.09325   0.51922   0.36679  -0.18356
C          C       0.15257   0.34222   0.31477   0.08433
C          C       0.11817   0.62584   0.30090   0.19702
C          C       0.07610   0.58011   0.28339   0.07126
C          C       0.19900   0.33104   0.19330   0.30768
C          C       0.22281   0.28431   0.25137   0.15781
C          C       0.20015   0.27594   0.34810  -0.17640
C          C       0.17767   0.29511   0.36857  -0.10392
C          C       0.17628   0.32277   0.29186  -0.08539
C          C       0.24562   0.26436   0.23272  -0.08668
C          C       0.97591   0.56174   0.22651   0.18823
C          C       0.09433   0.48951   0.36270  -0.18894
C          C       0.06549   0.47947   0.30149   0.18959
C          C       0.05787   0.45033   0.26459  -0.06782
C          C       0.01342   0.59171   0.18328  -0.18246
C          C       0.08151   0.42853   0.26230   0.07448
C          C       0.07148   0.60626   0.36709  -0.12259
C          C       0.22219   0.31189   0.17588  -0.25942
C          C       0.98356   0.59060   0.17679  -0.18779
C          C       0.12329   0.59953   0.21985  -0.17339
C          C       0.09197   0.62859   0.37547  -0.15506
C          C       0.10254   0.57739   0.21023  -0.11825
C          C       0.12677   0.38647   0.25175   0.19971
C          C       0.30190   0.17422   0.27872   0.27124
C          C       0.28176   0.19673   0.28708  -0.29562
C          C       0.28533   0.22367   0.20810   0.16163
C          C       0.30965   0.22745   0.11717  -0.15899
C          C       0.32911   0.20465   0.10597  -0.11360
C          C       0.32632   0.17772   0.18697  -0.04753
C          C       0.15790   0.65305   0.22435   0.08937
C          C       0.26448   0.24591   0.22058  -0.10519
C          C       0.10700   0.43464   0.18592  -0.12220
C          C       0.12914   0.41419   0.18078  -0.15846
C          C       0.10140   0.38008   0.32869  -0.17944
C          C       0.07953   0.40081   0.33532  -0.11497
C          C       0.98038   0.43933   0.23115   0.18852
C          C       0.95168   0.44649   0.26302  -0.05746
C          C       0.94325   0.47516   0.29556   0.18871
C          C       0.91559   0.48343   0.35032  -0.17482
C          C       0.92941   0.42323   0.26216   0.07332
C          C       0.02859   0.44122   0.22963   0.18860
C          C       0.91425   0.51309   0.34509  -0.18186
C          C       0.94121   0.52324   0.28891   0.18904
C          C       0.94755   0.55242   0.25362  -0.06499
C          C       0.92339   0.57386   0.24804   0.07748
C          C       0.93579   0.39665   0.34427  -0.13071
C          C       0.89565   0.56804   0.16325  -0.11690
C          C       0.87277   0.58792   0.16224  -0.16004
C          C       0.90441   0.62088   0.32805  -0.17970
C          C       0.92710   0.60091   0.32872  -0.12074
C          C       0.98970   0.41132   0.17747  -0.18001
C          C       0.01938   0.41255   0.17483  -0.18546
C          C       0.91464   0.37520   0.35022  -0.15533
C          C       0.90085   0.42703   0.18277  -0.11720
C          C       0.87655   0.61463   0.24597   0.20060
C          C       0.88622   0.37907   0.27014   0.20684
C          C       0.87963   0.40554   0.18692  -0.17797
C          C       0.85258   0.65740   0.32502   0.08014
C          C       0.80177   0.67041   0.20885   0.31326
C          C       0.78130   0.71699   0.28013   0.15933
C          C       0.80761   0.72376   0.38083  -0.17169
C          C       0.83030   0.70394   0.39558  -0.10751
C          C       0.82824   0.67713   0.31029  -0.08406
C          C       0.75827   0.73750   0.26542  -0.09204
C          C       0.84435   0.35261   0.17532   0.09050
C          C       0.70279   0.82698   0.32215   0.27926
C          C       0.72333   0.80453   0.33068  -0.30571
C          C       0.71775   0.77829   0.24336   0.16240
C          C       0.69097   0.77518   0.14250  -0.15967
C          C       0.67114   0.79802   0.13018  -0.10981
C          C       0.67594   0.82416   0.21981  -0.04091
C          C       0.73914   0.75611   0.25511  -0.10028
C          C       0.77854   0.69029   0.19605  -0.25020
C          C       0.43988   0.02306   0.20296   0.18858
C          C       0.44713   0.05231   0.23781  -0.05977
C          C       0.47629   0.06177   0.27260   0.18827
C          C       0.48501   0.09077   0.32342  -0.17882
C          C       0.42304   0.07366   0.23918   0.07149
C          C       0.44208   0.97497   0.20188   0.19258
C          C       0.51467   0.09239   0.32033  -0.18828
C          C       0.52450   0.06415   0.27259   0.18731
C          C       0.55363   0.05710   0.24877  -0.06990
C          C       0.57520   0.08112   0.24868   0.07999
C          C       0.39819   0.06731   0.32074  -0.12752
C          C       0.56876   0.10630   0.15304  -0.12295
C          C       0.58873   0.12894   0.15012  -0.15621
C          C       0.62292   0.10249   0.34091  -0.17882
C          C       0.60273   0.07996   0.34331  -0.11805
C          C       0.41104   0.01259   0.14548  -0.17956
C          C       0.41244   0.98292   0.14362  -0.18548
C          C       0.37573   0.08740   0.32696  -0.15062
C          C       0.42411   0.10112   0.16226  -0.11967
C          C       0.61625   0.12750   0.24375   0.19853
C          C       0.37700   0.11484   0.25084   0.20157
C          C       0.40180   0.12138   0.16888  -0.17512
C          C       0.66027   0.15427   0.31767   0.08400
C          C       0.66945   0.20140   0.17885   0.31170
C          C       0.71602   0.22618   0.24576   0.15791
C          C       0.72552   0.20356   0.35807  -0.17633
C          C       0.70697   0.18059   0.38129  -0.10466
C          C       0.67889   0.17868   0.29266  -0.08447
C          C       0.73539   0.24942   0.22363  -0.08590
C          C       0.34882   0.15583   0.17090   0.08967
C          C       0.82578   0.30500   0.28843   0.27263
C          C       0.80298   0.28503   0.29086  -0.29552
C          C       0.77573   0.28941   0.19672   0.16221
C          C       0.77199   0.31432   0.09479  -0.15762
C          C       0.79508   0.33366   0.08944  -0.11062
C          C       0.82220   0.33017   0.18684  -0.04697
C          C       0.75336   0.26861   0.20782  -0.10555
C          C       0.68798   0.22505   0.15798  -0.26179
C          C       0.56497   0.98017   0.22995   0.18602
C          C       0.55828   0.95093   0.26212  -0.06123
C          C       0.52991   0.94169   0.28864   0.18843
C          C       0.52250   0.91311   0.34425  -0.18193
C          C       0.58193   0.92889   0.27039   0.07330
C          C       0.56292   0.02836   0.22494   0.18707
C          C       0.49271   0.91202   0.34111  -0.18008
C          C       0.48163   0.93978   0.28086   0.18891
C          C       0.45187   0.94651   0.24001  -0.06722
C          C       0.42994   0.92295   0.23950   0.07834
C          C       0.60908   0.93355   0.36408  -0.12682
C          C       0.43394   0.89588   0.16423  -0.12195
C          C       0.41306   0.87397   0.16508  -0.15773
C          C       0.38306   0.90522   0.31658  -0.17665
C          C       0.40404   0.92693   0.31588  -0.12039
C          C       0.59282   0.99044   0.18645  -0.18074
C          C       0.59158   0.02016   0.18369  -0.18877
C          C       0.63092   0.91252   0.37474  -0.15440
C          C       0.57781   0.90208   0.18744  -0.11689
C          C       0.38719   0.87820   0.24083   0.19724
C          C       0.62683   0.88601   0.28921   0.20092
C          C       0.59963   0.88101   0.19636  -0.17553
C          C       0.34253   0.85632   0.30046   0.07794
C          C       0.33016   0.80501   0.22318   0.31498
C          C       0.28337   0.78499   0.28437   0.16022
C          C       0.27603   0.81189   0.35568  -0.17477
C          C       0.29558   0.83474   0.36001  -0.10685
C          C       0.32283   0.83210   0.29457  -0.08869
C          C       0.26319   0.76174   0.27894  -0.09426
C          C       0.65289   0.84611   0.20152   0.09139
C          C       0.17557   0.70290   0.33050   0.27994
C          C       0.19722   0.72432   0.33824  -0.30685
C          C       0.22374   0.71995   0.26810   0.16034
C          C       0.22804   0.69348   0.18619  -0.16092
C          C       0.20584   0.67289   0.17258  -0.10892
C          C       0.17940   0.67650   0.24468  -0.04153
C          C       0.24507   0.74217   0.27531  -0.09932
C          C       0.31037   0.78179   0.21937  -0.24905
C          C       0.01848   0.56034   0.73265   0.18983
C          C       0.04817   0.55326   0.77442  -0.06053
C          C       0.05758   0.52455   0.80845   0.19010
C          C       0.08703   0.51614   0.86819  -0.17878
C          C       0.14445   0.33810   0.81507   0.07861
C          C       0.11301   0.62176   0.80255   0.20050
C          C       0.07025   0.57678   0.78323   0.07186
C          C       0.19394   0.32747   0.72948   0.31033
C          C       0.21509   0.27933   0.78045   0.15765
C          C       0.18977   0.27033   0.85349  -0.17219
C          C       0.16717   0.28980   0.86474  -0.10865
C          C       0.16845   0.31848   0.80301  -0.09012
C          C       0.23777   0.25912   0.76451  -0.08938
C          C       0.97013   0.55887   0.72354   0.18810
C          C       0.08820   0.48650   0.86094  -0.18609
C          C       0.05933   0.47650   0.80021   0.19181
C          C       0.05173   0.44735   0.76508  -0.06774
C          C       0.00775   0.58856   0.67822  -0.17866
C          C       0.07558   0.42569   0.76659   0.07866
C          C       0.06565   0.60323   0.86386  -0.12579
C          C       0.21705   0.30786   0.72007  -0.24794
C          C       0.97793   0.58773   0.67448  -0.18646
C          C       0.11798   0.59520   0.72372  -0.17533
C          C       0.08656   0.62518   0.87373  -0.15360
C          C       0.09691   0.57340   0.71343  -0.12027
C          C       0.12149   0.38412   0.76776   0.19656
C          C       0.29539   0.16958   0.79090   0.27340
C          C       0.27452   0.19134   0.80182  -0.30080
C          C       0.27809   0.21926   0.73453   0.16140
C          C       0.30294   0.22476   0.65058  -0.16202
C          C       0.32289   0.20257   0.63366  -0.10886
C          C       0.32026   0.17477   0.70465  -0.05544
C          C       0.15314   0.64777   0.72395   0.09091
C          C       0.25671   0.24088   0.74988  -0.10242
C          C       0.10074   0.43132   0.68650  -0.12225
C          C       0.12329   0.41111   0.68772  -0.15492
C          C       0.09661   0.37847   0.85073  -0.18090
C          C       0.07430   0.39885   0.85006  -0.11756
C          C       0.97430   0.43619   0.73214   0.18875
C          C       0.94529   0.44352   0.75699  -0.06291
C          C       0.93629   0.47234   0.78107   0.18742
C          C       0.90780   0.48068   0.82423  -0.18071
C          C       0.92358   0.41970   0.76015   0.07497
C          C       0.02251   0.43810   0.73125   0.18965
C          C       0.90671   0.51040   0.82129  -0.18523
C          C       0.93455   0.52052   0.77667   0.18852
C          C       0.94161   0.54978   0.74812  -0.06778
C          C       0.91844   0.57226   0.74707   0.07865
C          C       0.93021   0.39484   0.85824  -0.12663
C          C       0.89086   0.56914   0.65557  -0.12179
C          C       0.86948   0.59056   0.65723  -0.15982
C          C       0.90225   0.61950   0.84219  -0.17619
C          C       0.92345   0.59801   0.83975  -0.11710
C          C       0.98389   0.40772   0.68686  -0.18342
C          C       0.01355   0.40903   0.68331  -0.18427
C          C       0.91004   0.37258   0.86738  -0.15362
C          C       0.89575   0.42097   0.66910  -0.12057
C          C       0.87462   0.61610   0.75090   0.19695
C          C       0.88235   0.37387   0.77528   0.19994
C          C       0.87544   0.39861   0.67633  -0.17256
C          C       0.85288   0.66025   0.83114   0.07851
C          C       0.80210   0.67425   0.71990   0.31382
C          C       0.78264   0.72116   0.79417   0.15771
C          C       0.80927   0.72744   0.89313  -0.17377
C          C       0.83162   0.70720   0.90544  -0.10850
C          C       0.82891   0.68046   0.81948  -0.08684
C          C       0.75986   0.74194   0.78033  -0.09065
C          C       0.84265   0.34350   0.68592   0.08433
C          C       0.70224   0.83043   0.83023   0.27948
C          C       0.72337   0.80853   0.84161  -0.30576
C          C       0.71879   0.78218   0.75413   0.16259
C          C       0.69244   0.77838   0.65035  -0.16420
C          C       0.67198   0.80063   0.63583  -0.10815
C          C       0.67576   0.82689   0.72517  -0.04038
C          C       0.74060   0.76044   0.76847  -0.10265
C          C       0.77922   0.69453   0.70983  -0.25111
C          C       0.43347   0.01997   0.70517   0.18779
C          C       0.44085   0.04923   0.74052  -0.06329
C          C       0.47008   0.05847   0.77566   0.18785
C          C       0.47915   0.08708   0.83213  -0.17671
C          C       0.41711   0.07089   0.74441   0.07104
C          C       0.43556   0.97178   0.70691   0.18768
C          C       0.50882   0.08848   0.82977  -0.18442
C          C       0.51826   0.06062   0.77465   0.18901
C          C       0.54703   0.05362   0.74387  -0.06216
C          C       0.56927   0.07696   0.74872   0.07909
C          C       0.39189   0.06447   0.82278  -0.13090
C          C       0.56350   0.10380   0.66847  -0.12398
C          C       0.58478   0.12536   0.67099  -0.15893
C          C       0.61863   0.09445   0.83807  -0.17677
C          C       0.59731   0.07300   0.83461  -0.11509
C          C       0.40462   0.00951   0.64769  -0.18330
C          C       0.40588   0.97978   0.64907  -0.19092
C          C       0.36989   0.08487   0.83300  -0.15559
C          C       0.41894   0.09883   0.67402  -0.11419
C          C       0.61277   0.12112   0.75573   0.20091
C          C       0.37194   0.11273   0.76294   0.20309
C          C       0.39705   0.11946   0.68454  -0.17524
C          C       0.65899   0.14352   0.83190   0.07843
C          C       0.67106   0.19193   0.71835   0.30810
C          C       0.71964   0.21251   0.78930   0.15830
C          C       0.72780   0.18780   0.88886  -0.17326
C          C       0.70777   0.16570   0.90208  -0.10994
C          C       0.67925   0.16696   0.81771  -0.09011
C          C       0.74021   0.23489   0.77249  -0.09221
C          C       0.34300   0.15328   0.68238   0.08802
C          C       0.82828   0.29597   0.81953   0.27485
C          C       0.80733   0.27430   0.83189  -0.30212
C          C       0.77934   0.27604   0.74232   0.16176
C          C       0.77297   0.29987   0.63481  -0.16051
C          C       0.79436   0.32066   0.61773  -0.11119
C          C       0.82216   0.31988   0.71008  -0.05142
C          C       0.75836   0.25401   0.75878  -0.09978
C          C       0.69132   0.21437   0.70563  -0.25209
C          C       0.55808   0.97693   0.72168   0.18759
C          C       0.55197   0.94782   0.76001  -0.05923
C          C       0.52375   0.93847   0.78888   0.18787
C          C       0.51645   0.90986   0.84421  -0.18171
C          C       0.57641   0.92667   0.77065   0.07292
C          C       0.55575   0.02499   0.71243   0.18846
C          C       0.48662   0.90852   0.83845  -0.18550
C          C       0.47538   0.93637   0.77988   0.18931
C          C       0.44551   0.94323   0.74241  -0.07063
C          C       0.42376   0.91947   0.74146   0.07734
C          C       0.60366   0.93347   0.85831  -0.12166
C          C       0.42784   0.89274   0.66256  -0.11713
C          C       0.40731   0.87052   0.66310  -0.16019
C          C       0.37712   0.90090   0.81867  -0.18069
C          C       0.39794   0.92282   0.81970  -0.11713
C          C       0.58517   0.98714   0.66744  -0.17740
C          C       0.58367   0.01679   0.66074  -0.18140
C          C       0.62680   0.91390   0.86840  -0.15537
C          C       0.57348   0.89911   0.69517  -0.12320
C          C       0.38157   0.87412   0.74091   0.19933
C          C       0.62399   0.88674   0.78879   0.20152
C          C       0.59665   0.87950   0.70333  -0.17772
C          C       0.33826   0.85013   0.80756   0.08360
C          C       0.32636   0.79987   0.70732   0.31460
C          C       0.28087   0.77724   0.77065   0.15836
C          C       0.27335   0.80280   0.85500  -0.17519
C          C       0.29238   0.82613   0.86692  -0.10880
C          C       0.31905   0.82544   0.79433  -0.08487
C          C       0.26128   0.75345   0.76129  -0.08983
C          C       0.65195   0.84797   0.70451   0.08859
C          C       0.17327   0.69710   0.82561   0.28313
C          C       0.19586   0.71744   0.82956  -0.30600
C          C       0.22144   0.71208   0.75207   0.16149
C          C       0.22389   0.68549   0.66780  -0.16416
C          C       0.20097   0.66575   0.66074  -0.10811
C          C       0.17533   0.67052   0.73905  -0.04308
C          C       0.24334   0.73372   0.75663  -0.10276
C          C       0.30733   0.77598   0.69820  -0.25640
N          N       0.00107   0.54513   0.25555  -0.37725
N          N       0.04683   0.50300   0.27585  -0.37753
N          N       0.14991   0.36712   0.23645  -0.29703
N          N       0.13756   0.64944   0.32123  -0.27648
N          N       0.00431   0.45768   0.25566  -0.38030
N          N       0.95926   0.49982   0.26724  -0.38383
N          N       0.85230   0.63336   0.23867  -0.30399
N          N       0.86636   0.35637   0.28609  -0.27995
N          N       0.45884  -0.00021   0.22940  -0.38192
N          N       0.50086   0.04545   0.24988  -0.37815
N          N       0.63502   0.15120   0.22886  -0.29405
N          N       0.35383   0.13400   0.27063  -0.28001
N          N       0.54659   0.00361   0.24602  -0.37821
N          N       0.50472   0.95810   0.25756  -0.38061
N          N       0.36753   0.85481   0.23651  -0.30189
N          N       0.65020   0.86629   0.30943  -0.27927
N          N       0.99512   0.54208   0.75155  -0.37931
N          N       0.04061   0.49997   0.77566  -0.38282
N          N       0.14478   0.36467   0.75724  -0.29476
N          N       0.13278   0.64508   0.82176  -0.28372
N          N       0.99810   0.45473   0.75294  -0.37964
N          N       0.95273   0.49700   0.75909  -0.37955
N          N       0.85151   0.63617   0.74508  -0.30065
N          N       0.86350   0.35058   0.79766  -0.26851
N          N       0.45235   0.99663   0.73282  -0.37686
N          N       0.49446   0.04216   0.74929  -0.38088
N          N       0.63297   0.14385   0.74901  -0.29757
N          N       0.34911   0.13207   0.78475  -0.27142
N          N       0.53980   0.00030   0.74050  -0.38158
N          N       0.49843   0.95476   0.75732  -0.38014
N          N       0.36227   0.85045   0.73373  -0.29991
N          N       0.64849   0.86845   0.80952  -0.27764
O          O       0.19861   0.35699   0.11684  -0.41609
O          O       0.29830   0.14833   0.35726  -0.42649
O          O       0.79874   0.64523   0.12527  -0.41354
O          O       0.70845   0.85225   0.40827  -0.42696
O          O       0.64304   0.20033   0.09123  -0.41734
O          O       0.85191   0.30034   0.38222  -0.42831
O          O       0.35566   0.80145   0.15854  -0.41152
O          O       0.15002   0.70722   0.39993  -0.42578
O          O       0.19590   0.35432   0.66683  -0.41019
O          O       0.29178   0.14271   0.85839  -0.42841
O          O       0.79848   0.64939   0.63402  -0.41305
O          O       0.70696   0.85576   0.91682  -0.42627
O          O       0.64442   0.19408   0.63416  -0.41065
O          O       0.85525   0.29423   0.90825  -0.42675
O          O       0.35121   0.79838   0.63417  -0.41372
O          O       0.14854   0.70278   0.90026  -0.42525

