data_crystal

_audit_creation_method 'AiiDA-DDEC plugin'

_cell_length_a        45.73163
_cell_length_b        46.03907
_cell_length_c         8.14434

_cell_angle_alpha     89.34018
_cell_angle_beta     93.98986
_cell_angle_gamma     90.04599

_symmetry_space_group_name_Hall 'P 1'
_symmetry_space_group_name_H-M  'P 1'

loop_
_symmetry_equiv_pos_as_xyz
 'x,y,z'

loop_
_atom_site_label
_atom_site_type_symbol
_atom_site_fract_x
_atom_site_fract_y
_atom_site_fract_z
_atom_site_charge
Ni         Ni      0.00118   0.50190   0.26685   0.40042
Ni         Ni      0.50044   0.00116   0.25162   0.39896
Ni         Ni      0.99909   0.49917   0.76359   0.40012
Ni         Ni      0.49851   0.99906   0.75376   0.39895
H          H       0.13217   0.33466   0.37976   0.07354
H          H       0.17946   0.36737   0.14564   0.30011
H          H       0.24940   0.81568   0.38040   0.11967
H          H       0.19497   0.25342   0.39307   0.11710
H          H       0.34762   0.20758   0.05586   0.10762
H          H       0.94635   0.60563   0.39333   0.10378
H          H       0.28266   0.15298   0.47281   0.35662
H          H       0.96726   0.60702   0.13475   0.12358
H          H       0.39871   0.94566   0.38382   0.10254
H          H       0.60393   0.03550   0.12438   0.12233
H          H       0.36132   0.90758   0.38278   0.10799
H          H       0.90719   0.64186   0.38545   0.10822
H          H       0.15421   0.28824   0.42415   0.10408
H          H       0.31091   0.24697   0.06155   0.12526
H          H       0.18625   0.74231   0.37891   0.14435
H          H       0.02633   0.60913   0.15295   0.12600
H          H       0.40237   0.14012   0.11916   0.10861
H          H       0.80724   0.26274   0.39290   0.12781
H          H       0.71085   0.15918   0.46845   0.10352
H          H       0.74602   0.19951   0.43177   0.11865
H          H       0.26135   0.19382   0.38214   0.12566
H          H       0.55522   0.89795   0.12815   0.10166
H          H       0.79347   0.35103   0.04454   0.10919
H          H       0.44168   0.10403   0.11469   0.09966
H          H       0.85735   0.40800   0.14915   0.11037
H          H       0.75919   0.68839   0.10953   0.14574
H          H       0.35333   0.08188   0.41232   0.12286
H          H       0.68370   0.23999   0.07552   0.14473
H          H       0.72445   0.85176   0.48037   0.36192
H          H       0.64962   0.79609   0.07181   0.11336
H          H       0.84916   0.28254   0.48775   0.36102
H          H       0.68593   0.75595   0.09316   0.12688
H          H       0.14080   0.59578   0.13996   0.11130
H          H       0.74337   0.80955   0.40380   0.12849
H          H       0.84134   0.36491   0.09392   0.06229
H          H       0.81807   0.63742   0.13282   0.30510
H          H       0.85029   0.71036   0.45681   0.10458
H          H       0.05060   0.60829   0.43654   0.10333
H          H       0.75316   0.31499   0.05027   0.12385
H          H       0.60718   0.97699   0.13818   0.12604
H          H       0.33107   0.87681   0.33410   0.07236
H          H       0.63429   0.18064   0.11563   0.30160
H          H       0.59397   0.86055   0.14826   0.11055
H          H       0.64993   0.91833   0.43770   0.12320
H          H       0.14720   0.41960   0.10564   0.12333
H          H       0.89145   0.54816   0.09833   0.10504
H          H       0.05806   0.39697   0.39560   0.10541
H          H       0.63751   0.84514   0.09594   0.06354
H          H       0.31354   0.76095   0.16919   0.14728
H          H       0.80966   0.74637   0.43408   0.11704
H          H       0.89809   0.46887   0.40265   0.12477
H          H       0.08804   0.64746   0.44368   0.12290
H          H       0.25216   0.69003   0.16604   0.12382
H          H       0.03237   0.39796   0.12668   0.12245
H          H       0.91965   0.35516   0.43634   0.12150
H          H       0.89499   0.52741   0.38160   0.12281
H          H       0.23866   0.31763   0.10449   0.14642
H          H       0.10370   0.55739   0.13492   0.10284
H          H       0.97389   0.39505   0.14790   0.12532
H          H       0.09669   0.36033   0.38523   0.10923
H          H       0.13704   0.68143   0.36638   0.30189
H          H       0.10789   0.53399   0.40849   0.12567
H          H       0.87067   0.66510   0.39540   0.07279
H          H       0.10763   0.45637   0.11596   0.10279
H          H       0.39380   0.04555   0.40937   0.09973
H          H       0.41495   0.85337   0.09771   0.12295
H          H       0.17110   0.62713   0.19074   0.08046
H          H       0.45262   0.89235   0.09996   0.10529
H          H       0.28469   0.85680   0.38401   0.10554
H          H       0.52586   0.10903   0.35909   0.12552
H          H       0.61081   0.95611   0.41416   0.10296
H          H       0.53632   0.89744   0.39572   0.12442
H          H       0.11029   0.47565   0.38936   0.12701
H          H       0.36540   0.16351   0.11467   0.05460
H          H       0.46753   0.10482   0.38498   0.12601
H          H       0.47729   0.89403   0.38077   0.12488
H          H       0.21756   0.64824   0.15206   0.11004
H          H       0.36446   0.81999   0.17402   0.30316
H          H       0.54455   0.10922   0.08904   0.10505
H          H       0.85138   0.58469   0.08883   0.12173
H          H       0.66471   0.13608   0.40704   0.07722
H          H       0.39071   0.02528   0.13710   0.12723
H          H       0.60577   0.05819   0.39213   0.10327
H          H       0.39436   0.96709   0.11250   0.12368
H          H       0.58118   0.14900   0.08168   0.12246
H          H       0.89433   0.44676   0.13450   0.10270
H          H       0.95704   0.39434   0.41833   0.10477
H          H       0.64221   0.09714   0.38575   0.10952
H          H       0.12897   0.33214   0.87381   0.07337
H          H       0.17940   0.36500   0.65598   0.30266
H          H       0.25419   0.80523   0.90948   0.11899
H          H       0.18970   0.24976   0.89279   0.12018
H          H       0.34860   0.20904   0.61155   0.10994
H          H       0.94564   0.60169   0.89997   0.10241
H          H       0.27610   0.14415   0.93673   0.36367
H          H       0.96422   0.60366   0.62767   0.12205
H          H       0.39616   0.94273   0.88098   0.10262
H          H       0.60094   0.03303   0.60938   0.12113
H          H       0.35905   0.90433   0.87081   0.10879
H          H       0.90777   0.63926   0.89791   0.10813
H          H       0.14976   0.28574   0.92027   0.10589
H          H       0.30972   0.24661   0.60907   0.12520
H          H       0.19569   0.73747   0.92171   0.12761
H          H       0.02319   0.60607   0.63616   0.12445
H          H       0.40010   0.13800   0.62151   0.11005
H          H       0.80979   0.25721   0.91274   0.12963
H          H       0.71413   0.14775   0.93767   0.10642
H          H       0.74953   0.18851   0.91640   0.11971
H          H       0.25536   0.18643   0.85928   0.12823
H          H       0.55519   0.89509   0.63163   0.10225
H          H       0.79291   0.34417   0.55587   0.11194
H          H       0.43983   0.10237   0.61774   0.10251
H          H       0.85618   0.40292   0.64788   0.11065
H          H       0.75913   0.68741   0.63576   0.14667
H          H       0.35169   0.07942   0.91582   0.12259
H          H       0.68339   0.23773   0.62758   0.14747
H          H       0.72368   0.84966   0.01013   0.35871
H          H       0.65339   0.79937   0.55777   0.11198
H          H       0.85215   0.27805  -0.00296   0.36268
H          H       0.68920   0.75890   0.57829   0.12597
H          H       0.14166   0.59262   0.68527   0.10919
H          H       0.74312   0.80832   0.92954   0.12741
H          H       0.84292   0.35743   0.59237   0.06393
H          H       0.81821   0.63642   0.65859   0.30149
H          H       0.85356   0.71294   0.94157   0.10559
H          H       0.04504   0.60677   0.91426   0.10190
H          H       0.75323   0.30779   0.57392   0.12792
H          H       0.60459   0.97448   0.63053   0.12480
H          H       0.33461   0.86822   0.87603   0.07273
H          H       0.63272   0.17889   0.65448   0.30056
H          H       0.59549   0.85936   0.65277   0.11041
H          H       0.64872   0.91924   0.94346   0.12294
H          H       0.14558   0.41716   0.60586   0.12248
H          H       0.88840   0.54713   0.59990   0.10565
H          H       0.05741   0.39591   0.90671   0.10316
H          H       0.64009   0.84676   0.59769   0.06193
H          H       0.31281   0.75920   0.60792   0.14497
H          H       0.81261   0.74855   0.92334   0.11818
H          H       0.89547   0.46548   0.88985   0.12441
H          H       0.08276   0.64587   0.93994   0.12340
H          H       0.24401   0.68507   0.59802   0.12226
H          H       0.03147   0.39506   0.63432   0.12403
H          H       0.91866   0.35303   0.95188   0.12253
H          H       0.89245   0.52403   0.87707   0.12401
H          H       0.23736   0.31379   0.62390   0.14797
H          H       0.10383   0.55447   0.65508   0.10231
H          H       0.97289   0.39165   0.65422   0.12702
H          H       0.09627   0.35953   0.90239   0.10798
H          H       0.15435   0.71805   0.00504   0.36208
H          H       0.10496   0.53219   0.91475   0.12393
H          H       0.87387   0.66707   0.88159   0.07630
H          H       0.10574   0.45384   0.61121   0.10280
H          H       0.39232   0.04324   0.91021   0.10065
H          H       0.41445   0.85148   0.58867   0.12322
H          H       0.15574   0.63605   0.62416   0.05698
H          H       0.45146   0.89111   0.59544   0.10531
H          H       0.28911   0.84665   0.92793   0.10332
H          H       0.52473   0.10643   0.86267   0.12417
H          H       0.60805   0.95541   0.91822   0.10147
H          H       0.53424   0.89487   0.89101   0.12604
H          H       0.10826   0.47401   0.88977   0.12620
H          H       0.36790   0.16547   0.67026   0.05739
H          H       0.46630   0.10281   0.88800   0.12462
H          H       0.47523   0.89164   0.87474   0.12522
H          H       0.20382   0.64888   0.58931   0.10491
H          H       0.36264   0.81939   0.63044   0.30104
H          H       0.54329   0.10735   0.59186   0.10476
H          H       0.84985   0.58513   0.59442   0.12199
H          H       0.66726   0.12658   0.87995   0.07670
H          H       0.38907   0.02383   0.63494   0.12829
H          H       0.60330   0.05406   0.88852   0.10388
H          H       0.39211   0.96560   0.61499   0.12396
H          H       0.58068   0.14667   0.59161   0.12259
H          H       0.89267   0.44195   0.62526   0.10298
H          H       0.95550   0.39239   0.92615   0.10150
H          H       0.64019   0.09271   0.89338   0.10851
C          C       0.02288   0.56285   0.23599   0.17301
C          C       0.05223   0.55628   0.28059  -0.06664
C          C       0.06106   0.52770   0.31609   0.17150
C          C       0.09039   0.51918   0.37104  -0.18299
C          C       0.14920   0.34210   0.30063   0.08180
C          C       0.11739   0.62452   0.29568   0.20214
C          C       0.07443   0.57976   0.28634   0.07953
C          C       0.19737   0.33072   0.19053   0.31075
C          C       0.21933   0.28315   0.24569   0.16001
C          C       0.19506   0.27479   0.33534  -0.17375
C          C       0.17258   0.29428   0.35254  -0.10440
C          C       0.17295   0.32239   0.28098  -0.08827
C          C       0.24231   0.26304   0.23134  -0.09236
C          C       0.97445   0.56106   0.22163   0.17314
C          C       0.09159   0.48964   0.36179  -0.18851
C          C       0.06295   0.47987   0.30294   0.17306
C          C       0.05604   0.45130   0.25827  -0.06609
C          C       0.01242   0.59091   0.17957  -0.18357
C          C       0.07968   0.42940   0.25430   0.07854
C          C       0.07030   0.60574   0.37088  -0.12071
C          C       0.22033   0.31108   0.17452  -0.25599
C          C       0.98253   0.58978   0.17009  -0.18840
C          C       0.12163   0.59862   0.20989  -0.17127
C          C       0.09128   0.62768   0.37543  -0.15966
C          C       0.10056   0.57685   0.20581  -0.11768
C          C       0.12501   0.38724   0.24350   0.19917
C          C       0.30121   0.17483   0.30911   0.28170
C          C       0.28028   0.19684   0.30978  -0.29974
C          C       0.28343   0.22315   0.22249   0.16269
C          C       0.30839   0.22704   0.13175  -0.16351
C          C       0.32872   0.20482   0.12869  -0.11660
C          C       0.32613   0.17824   0.21539  -0.04726
C          C       0.16303   0.64673   0.24816   0.08446
C          C       0.26163   0.24478   0.22628  -0.09916
C          C       0.10553   0.43539   0.17620  -0.12295
C          C       0.12770   0.41486   0.17036  -0.15876
C          C       0.09934   0.38112   0.32350  -0.17886
C          C       0.07732   0.40180   0.32912  -0.11658
C          C       0.97886   0.44099   0.23092   0.17470
C          C       0.95040   0.44723   0.27291  -0.05987
C          C       0.94248   0.47565   0.30940   0.17452
C          C       0.91448   0.48391   0.36383  -0.17993
C          C       0.92848   0.42356   0.27636   0.07662
C          C       0.02694   0.44311   0.21987   0.17342
C          C       0.91296   0.51347   0.35401  -0.18724
C          C       0.94023   0.52355   0.29653   0.17350
C          C       0.94607   0.55241   0.25411  -0.06675
C          C       0.92199   0.57404   0.24734   0.08117
C          C       0.93530   0.39706   0.35799  -0.13103
C          C       0.89466   0.56856   0.16295  -0.12075
C          C       0.87216   0.58897   0.15745  -0.15672
C          C       0.90322   0.62152   0.32120  -0.17919
C          C       0.92558   0.60106   0.32574  -0.12030
C          C       0.98822   0.41332   0.17403  -0.18384
C          C       0.01785   0.41474   0.16482  -0.18446
C          C       0.91457   0.37515   0.36787  -0.15416
C          C       0.89997   0.42669   0.20074  -0.12115
C          C       0.87584   0.61579   0.23739   0.19951
C          C       0.88616   0.37837   0.29181   0.20278
C          C       0.87919   0.40469   0.20810  -0.17524
C          C       0.85217   0.65917   0.30920   0.08062
C          C       0.80194   0.67322   0.19523   0.31217
C          C       0.78173   0.71973   0.27044   0.16010
C          C       0.80788   0.72601   0.36820  -0.17187
C          C       0.83037   0.70593   0.37981  -0.10543
C          C       0.82818   0.67933   0.29459  -0.08433
C          C       0.75863   0.74017   0.26070  -0.08964
C          C       0.84487   0.35122   0.20505   0.08746
C          C       0.70164   0.82864   0.32602   0.27755
C          C       0.72267   0.80664   0.33141  -0.30500
C          C       0.71730   0.78012   0.24940   0.16117
C          C       0.69022   0.77615   0.15819  -0.16081
C          C       0.67006   0.79868   0.14707  -0.11149
C          C       0.67476   0.82518   0.23017  -0.04130
C          C       0.73920   0.75848   0.25593  -0.10345
C          C       0.77900   0.69339   0.18521  -0.25196
C          C       0.43834   0.02196   0.21829   0.17516
C          C       0.44486   0.05070   0.26057  -0.06312
C          C       0.47386   0.05957   0.29577   0.17298
C          C       0.48239   0.08831   0.34719  -0.18239
C          C       0.42079   0.07212   0.26256   0.07713
C          C       0.44108   0.97419   0.20420   0.17412
C          C       0.51193   0.09035   0.33562  -0.18973
C          C       0.52185   0.06265   0.28166   0.17172
C          C       0.55052   0.05666   0.24254  -0.06828
C          C       0.57231   0.08055   0.24012   0.08252
C          C       0.39523   0.06607   0.34326  -0.12842
C          C       0.56585   0.10679   0.15511  -0.12452
C          C       0.58629   0.12911   0.15107  -0.15777
C          C       0.62091   0.10024   0.31989  -0.17928
C          C       0.60034   0.07800   0.32289  -0.11792
C          C       0.40978   0.01166   0.16122  -0.18502
C          C       0.41159   0.98220   0.15000  -0.18534
C          C       0.37268   0.08627   0.34553  -0.14845
C          C       0.42253   0.09930   0.18219  -0.11883
C          C       0.61420   0.12639   0.23385   0.20034
C          C       0.37467   0.11356   0.26717   0.20334
C          C       0.40013   0.11960   0.18451  -0.17619
C          C       0.65815   0.15209   0.31055   0.08108
C          C       0.67029   0.19931   0.17720   0.30991
C          C       0.71725   0.22233   0.25071   0.15779
C          C       0.72502   0.19901   0.36079  -0.17482
C          C       0.70540   0.17661   0.38002  -0.10482
C          C       0.67792   0.17591   0.28907  -0.08556
C          C       0.73732   0.24538   0.23493  -0.08583
C          C       0.34926   0.15692   0.20232   0.08718
C          C       0.82652   0.30293   0.31767   0.27633
C          C       0.80428   0.28217   0.31609  -0.30181
C          C       0.77748   0.28623   0.22206   0.16398
C          C       0.77351   0.31174   0.12518  -0.15953
C          C       0.79618   0.33173   0.12265  -0.10887
C          C       0.82299   0.32839   0.21816  -0.04597
C          C       0.75552   0.26472   0.22673  -0.10650
C          C       0.68990   0.22234   0.16050  -0.25649
C          C       0.56161   0.98030   0.21982   0.17241
C          C       0.55606   0.95143   0.26332  -0.06162
C          C       0.52796   0.94266   0.30028   0.17187
C          C       0.52057   0.91410   0.35761  -0.18070
C          C       0.58002   0.92976   0.27002   0.07794
C          C       0.55901   0.02824   0.20959   0.17228
C          C       0.49073   0.91237   0.34983  -0.18714
C          C       0.47968   0.93992   0.28859   0.17387
C          C       0.45027   0.94581   0.24237  -0.06672
C          C       0.42829   0.92216   0.24002   0.07957
C          C       0.60731   0.93530   0.35454  -0.12904
C          C       0.43267   0.89551   0.16260  -0.12241
C          C       0.41159   0.87366   0.16097  -0.15705
C          C       0.38076   0.90408   0.31600  -0.17752
C          C       0.40192   0.92571   0.31747  -0.11757
C          C       0.58896   0.99068   0.16504  -0.18465
C          C       0.58733   0.02026   0.15831  -0.18792
C          C       0.62924   0.91438   0.36741  -0.15451
C          C       0.57601   0.90243   0.19580  -0.12073
C          C       0.38514   0.87757   0.23646   0.19719
C          C       0.62515   0.88719   0.29206   0.20034
C          C       0.59798   0.88149   0.20625  -0.17462
C          C       0.33901   0.85650   0.28364   0.07883
C          C       0.32717   0.80482   0.21823   0.31744
C          C       0.27917   0.78561   0.27448   0.16087
C          C       0.27096   0.81308   0.33442  -0.17127
C          C       0.29074   0.83577   0.33676  -0.10742
C          C       0.31904   0.83244   0.27945  -0.08758
C          C       0.25901   0.76234   0.27385  -0.08826
C          C       0.65176   0.84715   0.20978   0.08889
C          C       0.17374   0.69826   0.32360   0.29876
C          C       0.19310   0.72188   0.32807  -0.27479
C          C       0.22142   0.71894   0.27247   0.16175
C          C       0.23038   0.69194   0.21026  -0.16692
C          C       0.21103   0.66885   0.20268  -0.09988
C          C       0.18256   0.67121   0.25817  -0.08167
C          C       0.24112   0.74259   0.27586  -0.10060
C          C       0.30716   0.78176   0.21705  -0.24826
C          C       0.02038   0.56008   0.72651   0.17342
C          C       0.04971   0.55397   0.77484  -0.06159
C          C       0.05855   0.52556   0.81529   0.17262
C          C       0.08777   0.51728   0.87397  -0.18060
C          C       0.14701   0.33989   0.80271   0.07902
C          C       0.11455   0.62239   0.81221   0.20014
C          C       0.07163   0.57765   0.78330   0.07049
C          C       0.19585   0.32775   0.70224   0.31028
C          C       0.21616   0.27946   0.75718   0.15895
C          C       0.19097   0.27143   0.83975  -0.17285
C          C       0.16890   0.29149   0.85426  -0.10894
C          C       0.17058   0.31981   0.78641  -0.08632
C          C       0.23868   0.25884   0.74400  -0.08875
C          C       0.97202   0.55803   0.71724   0.17415
C          C       0.08940   0.48781   0.86257  -0.19003
C          C       0.06098   0.47778   0.80167   0.17499
C          C       0.05439   0.44910   0.75865  -0.06918
C          C       0.00961   0.58785   0.66712  -0.18263
C          C       0.07835   0.42749   0.75692   0.08121
C          C       0.06593   0.60408   0.86046  -0.12713
C          C       0.21842   0.30755   0.68967  -0.25229
C          C       0.97976   0.58662   0.66214  -0.18737
C          C       0.12041   0.59606   0.73423  -0.18160
C          C       0.08691   0.62591   0.87543  -0.15737
C          C       0.09925   0.57437   0.71910  -0.12033
C          C       0.12389   0.38551   0.75058   0.19643
C          C       0.29758   0.17003   0.80504   0.27863
C          C       0.27576   0.19121   0.80314  -0.30571
C          C       0.27987   0.21910   0.73484   0.16234
C          C       0.30660   0.22541   0.66517  -0.15635
C          C       0.32805   0.20419   0.66619  -0.11120
C          C       0.32459   0.17615   0.73479  -0.04531
C          C       0.15467   0.64933   0.73547   0.08891
C          C       0.25765   0.24026   0.73805  -0.10327
C          C       0.10394   0.43323   0.67598  -0.12300
C          C       0.12624   0.41275   0.67270  -0.15624
C          C       0.09858   0.37980   0.83484  -0.17588
C          C       0.07644   0.40038   0.83775  -0.11878
C          C       0.97727   0.43798   0.73126   0.17394
C          C       0.94859   0.44415   0.76965  -0.06295
C          C       0.94026   0.47260   0.80288   0.17326
C          C       0.91202   0.48068   0.85509  -0.18276
C          C       0.92688   0.42026   0.77550   0.07698
C          C       0.02538   0.44049   0.72153   0.17392
C          C       0.91053   0.51028   0.84870  -0.18768
C          C       0.93791   0.52056   0.79367   0.17414
C          C       0.94376   0.54947   0.75281  -0.06899
C          C       0.92013   0.57157   0.74977   0.08179
C          C       0.93381   0.39446   0.86409  -0.12916
C          C       0.89255   0.56726   0.66584  -0.12416
C          C       0.87084   0.58849   0.66293  -0.15628
C          C       0.90315   0.61942   0.82980  -0.17794
C          C       0.92472   0.59819   0.83147  -0.11750
C          C       0.98704   0.41013   0.67871  -0.18687
C          C       0.01667   0.41181   0.67001  -0.18654
C          C       0.91337   0.37239   0.87806  -0.15505
C          C       0.89850   0.42251   0.69711  -0.12209
C          C       0.87559   0.61496   0.74524   0.19801
C          C       0.88511   0.37471   0.79880   0.20140
C          C       0.87799   0.40032   0.70855  -0.17331
C          C       0.85399   0.66008   0.80952   0.07714
C          C       0.80262   0.67296   0.71247   0.31707
C          C       0.78320   0.72037   0.77763   0.15887
C          C       0.81027   0.72759   0.86408  -0.17186
C          C       0.83291   0.70768   0.87368  -0.10966
C          C       0.82992   0.68017   0.79866  -0.08722
C          C       0.76005   0.74077   0.76855  -0.09236
C          C       0.84516   0.34570   0.71118   0.09112
C          C       0.70263   0.82867   0.84023   0.27976
C          C       0.72331   0.80635   0.84819  -0.30306
C          C       0.71876   0.78079   0.75606   0.16118
C          C       0.69279   0.77815   0.65285  -0.16415
C          C       0.67291   0.80092   0.64155  -0.11195
C          C       0.67676   0.82649   0.73441  -0.04386
C          C       0.74053   0.75897   0.76352  -0.10036
C          C       0.77963   0.69312   0.70306  -0.25145
C          C       0.43655   0.02014   0.71966   0.17337
C          C       0.44320   0.04883   0.76298  -0.06248
C          C       0.47222   0.05752   0.79848   0.17211
C          C       0.48101   0.08616   0.85042  -0.17986
C          C       0.41928   0.07034   0.76675   0.07846
C          C       0.43898   0.97230   0.70656   0.17317
C          C       0.51057   0.08793   0.83891  -0.18823
C          C       0.52016   0.06024   0.78334   0.17307
C          C       0.54853   0.05415   0.74024  -0.06701
C          C       0.57055   0.07771   0.73917   0.08467
C          C       0.39377   0.06402   0.84716  -0.13054
C          C       0.56452   0.10436   0.65805  -0.12483
C          C       0.58535   0.12639   0.65811  -0.15747
C          C       0.61927   0.09624   0.82425  -0.17813
C          C       0.59843   0.07428   0.82228  -0.11853
C          C       0.40797   0.01005   0.66160  -0.18515
C          C       0.40953   0.98054   0.65205  -0.18890
C          C       0.37113   0.08406   0.85038  -0.14661
C          C       0.42091   0.09760   0.68717  -0.11980
C          C       0.61311   0.12279   0.74130   0.19913
C          C       0.37300   0.11142   0.77288   0.19679
C          C       0.39835   0.11773   0.68985  -0.17147
C          C       0.65912   0.14542   0.80676   0.07605
C          C       0.67013   0.19540   0.70710   0.31125
C          C       0.71870   0.21577   0.77091   0.15983
C          C       0.72749   0.18997   0.85806  -0.17320
C          C       0.70772   0.16747   0.86927  -0.10983
C          C       0.67892   0.16939   0.79462  -0.08712
C          C       0.73902   0.23868   0.75886  -0.09303
C          C       0.34895   0.15606   0.72840   0.08052
C          C       0.82775   0.29774   0.83190   0.27647
C          C       0.80603   0.27650   0.83554  -0.30560
C          C       0.77879   0.27992   0.74502   0.15978
C          C       0.77393   0.30510   0.64639  -0.16220
C          C       0.79624   0.32538   0.63741  -0.11054
C          C       0.82339   0.32281   0.73003  -0.04863
C          C       0.75724   0.25805   0.75179  -0.10077
C          C       0.69013   0.21826   0.69670  -0.24911
C          C       0.55952   0.97797   0.71787   0.17221
C          C       0.55418   0.94917   0.76335  -0.06103
C          C       0.52606   0.94034   0.79936   0.17193
C          C       0.51857   0.91168   0.85427  -0.18263
C          C       0.57862   0.92799   0.77236   0.07627
C          C       0.55675   0.02582   0.70427   0.17288
C          C       0.48871   0.91005   0.84586  -0.18911
C          C       0.47773   0.93779   0.78712   0.17356
C          C       0.44826   0.94386   0.74261  -0.06768
C          C       0.42654   0.92002   0.73802   0.07655
C          C       0.60558   0.93453   0.85813  -0.12469
C          C       0.43143   0.89370   0.65814  -0.11995
C          C       0.41077   0.87150   0.65387  -0.15849
C          C       0.37909   0.90102   0.80903  -0.17981
C          C       0.39996   0.92296   0.81406  -0.11626
C          C       0.58656   0.98829   0.65866  -0.18384
C          C       0.58475   0.01783   0.64875  -0.18281
C          C       0.62834   0.91449   0.87203  -0.15662
C          C       0.57576   0.90049   0.69907  -0.12365
C          C       0.38420   0.87471   0.72907   0.19910
C          C       0.62547   0.88720   0.79661   0.20081
C          C       0.59859   0.88045   0.71028  -0.17575
C          C       0.34046   0.85069   0.79425   0.08292
C          C       0.32709   0.80166   0.68576   0.31035
C          C       0.28130   0.77948   0.75794   0.16160
C          C       0.27436   0.80467   0.84671  -0.17124
C          C       0.29387   0.82756   0.85670  -0.10696
C          C       0.32047   0.82674   0.77832  -0.08567
C          C       0.26170   0.75575   0.75514  -0.09139
C          C       0.65372   0.84842   0.71398   0.09095
C          C       0.17526   0.69709   0.84915   0.29370
C          C       0.19752   0.71784   0.84997  -0.28816
C          C       0.22253   0.71384   0.76085   0.16614
C          C       0.22504   0.68820   0.66907  -0.16418
C          C       0.20237   0.66820   0.66414  -0.11363
C          C       0.17712   0.67172   0.75256  -0.04967
C          C       0.24398   0.73588   0.75947  -0.09768
C          C       0.30749   0.77825   0.67748  -0.25699
N          N      -0.00056   0.54410   0.25253  -0.28228
N          N       0.04381   0.50327   0.28429  -0.28219
N          N       0.14819   0.36769   0.22873  -0.29752
N          N       0.13714   0.64790   0.30646  -0.29504
N          N       0.00260   0.45978   0.25012  -0.28367
N          N       0.95900   0.50026   0.27885  -0.28273
N          N       0.85191   0.63505   0.22557  -0.30286
N          N       0.86669   0.35524   0.31206  -0.27636
N          N       0.45791   0.99892   0.23565  -0.28308
N          N       0.49848   0.04332   0.26540  -0.28164
N          N       0.63349   0.14990   0.22005  -0.29756
N          N       0.35117   0.13263   0.28399  -0.27779
N          N       0.54264   0.00344   0.23790  -0.28247
N          N       0.50268   0.95906   0.26844  -0.28167
N          N       0.36520   0.85433   0.22942  -0.30151
N          N       0.64841   0.86741   0.31534  -0.27411
N          N       0.99711   0.54125   0.74686  -0.28321
N          N       0.04162   0.50096   0.78204  -0.28348
N          N       0.14707   0.36589   0.73631  -0.29784
N          N       0.13474   0.64506   0.83832  -0.27864
N          N       0.00082   0.45703   0.74945  -0.28417
N          N       0.95677   0.49733   0.77494  -0.28382
N          N       0.85223   0.63486   0.73683  -0.30156
N          N       0.86572   0.35165   0.82264  -0.27125
N          N       0.45594   0.99696   0.73797  -0.28208
N          N       0.49667   0.04111   0.76750  -0.28190
N          N       0.63274   0.14613   0.73356  -0.29780
N          N       0.34880   0.12972   0.78509  -0.27088
N          N       0.54059   0.00109   0.73641  -0.28300
N          N       0.50080   0.95687   0.76832  -0.28282
N          N       0.36457   0.85129   0.71666  -0.30066
N          N       0.64934   0.86815   0.82124  -0.27476
O          O       0.19857   0.35715   0.12001  -0.41510
O          O       0.29794   0.14979   0.39736  -0.42021
O          O       0.79873   0.64831   0.11148  -0.41343
O          O       0.70677   0.85413   0.40786  -0.42547
O          O       0.64443   0.19978   0.08810  -0.41592
O          O       0.85204   0.29879   0.41299  -0.42561
O          O       0.35365   0.80057   0.16085  -0.41193
O          O       0.14696   0.70145   0.37980  -0.42227
O          O       0.19824   0.35422   0.63306  -0.41078
O          O       0.29333   0.14319   0.87317  -0.42189
O          O       0.79860   0.64715   0.63946  -0.41374
O          O       0.70722   0.85331   0.93019  -0.42601
O          O       0.64312   0.19820   0.63277  -0.41140
O          O       0.85395   0.29437   0.92139  -0.42741
O          O       0.35206   0.80001   0.60853  -0.41495
O          O       0.15104   0.70118   0.93515  -0.42807

