data_crystal

_audit_creation_method 'AiiDA-DDEC plugin'

_cell_length_a        32.04757
_cell_length_b        32.33394
_cell_length_c         4.48684

_cell_angle_alpha     90.79778
_cell_angle_beta     89.77571
_cell_angle_gamma     121.65046

_symmetry_space_group_name_Hall 'P 1'
_symmetry_space_group_name_H-M  'P 1'

loop_
_symmetry_equiv_pos_as_xyz
 'x,y,z'

loop_
_atom_site_label
_atom_site_type_symbol
_atom_site_fract_x
_atom_site_fract_y
_atom_site_fract_z
_atom_site_charge
P          P       0.67777   0.36487   0.80765   0.26135
P          P       0.35527   0.70086   0.82323   0.25872
H          H       0.52222   0.60167   0.04849   0.11678
H          H       0.51033   0.46352   0.58703   0.11686
H          H       0.95252   0.54251   0.60549   0.11685
H          H       0.22411   0.60425   0.07643   0.11281
H          H       0.80568   0.46538   0.56187   0.11294
H          H       0.44984   0.66801   0.07736   0.11595
H          H       0.58331   0.39772   0.55310   0.11194
H          H       0.38535   0.82442   0.06833   0.11172
H          H       0.64923   0.24202   0.56418   0.11525
H          H       0.30967   0.64483   0.27912   0.08320
H          H       0.72057   0.42129   0.35284   0.08222
H          H       0.41006   0.71167   0.27531   0.08228
H          H       0.62328   0.35406   0.35304   0.08301
H          H       0.34072   0.74102   0.28335   0.08346
H          H       0.69277   0.32584   0.35142   0.08212
H          H       0.56881   0.56452   0.86856   0.11632
H          H       0.46331   0.50047   0.76583   0.11891
H          H       0.58231   0.47988   0.54875   0.02427
H          H       0.46936   0.91223   0.06604   0.02671
H          H       0.56650   0.15338   0.56188   0.02502
H          H       0.13931   0.60357   0.08249   0.02547
H          H       0.89401   0.47143   0.55758   0.02567
H          H       0.54363   0.19290   0.85629   0.11186
H          H       0.85096   0.40983   0.83895   0.11119
H          H       0.64427   0.49766   0.83126   0.11141
H          H       0.58426   0.27761   0.66078   0.10866
H          H       0.76503   0.36225   0.64727   0.10890
H          H       0.68707   0.45630   0.64590   0.10758
H          H       0.49099   0.87252   0.77594   0.11201
H          H       0.18477   0.66400   0.80567   0.11061
H          H       0.38882   0.56834   0.80064   0.11028
H          H       0.44935   0.78798   0.97213   0.10837
H          H       0.27107   0.70771   0.99272   0.10870
H          H       0.34455   0.60852   0.97819   0.10841
H          H       0.45157   0.96490   0.02676   0.11915
H          H       0.58721   0.10213   0.58830   0.11724
H          H       0.08017   0.53387   0.03532   0.11665
H          H       0.48487   0.04947   0.85979   0.11961
H          H       0.55355   0.01734   0.75782   0.11984
H          H       0.99336   0.48689   0.86089   0.11882
H          H       0.03942   0.59062   0.77492   0.11937
H          H       0.45058   0.58486   0.08509   0.02348
C          C       0.52003   0.57172   0.16990  -0.17450
C          C       0.51247   0.49344   0.46560  -0.17405
C          C       0.48090   0.99499   0.15349  -0.17692
C          C       0.55772   0.07188   0.46334  -0.17431
C          C       0.05205   0.53537   0.16277  -0.17280
C          C       0.98073   0.54163   0.47508  -0.17448
C          C       0.23527   0.62946   0.26383  -0.09841
C          C       0.79616   0.44036   0.37462  -0.09858
C          C       0.42414   0.65307   0.26082  -0.10181
C          C       0.60844   0.41220   0.36694  -0.09803
C          C       0.40113   0.81565   0.25221  -0.09969
C          C       0.63317   0.25076   0.38157  -0.10153
C          C       0.28194   0.64864   0.39374  -0.12218
C          C       0.74943   0.41894   0.24189  -0.12434
C          C       0.40534   0.68004   0.38875  -0.12125
C          C       0.62707   0.38519   0.23820  -0.12320
C          C       0.37425   0.76974   0.38655  -0.13150
C          C       0.65954   0.29677   0.24757  -0.13215
C          C       0.54299   0.54847   0.05025  -0.12536
C          C       0.48937   0.51660   0.58512  -0.12747
C          C       0.50209   0.04201   0.04146  -0.12853
C          C       0.53647   0.02488   0.57577  -0.12780
C          C       0.00436   0.51222   0.04727  -0.12797
C          C       0.02856   0.56515   0.58926  -0.12712
C          C       0.41938   0.61336   0.42106   0.04469
C          C       0.61330   0.45201   0.20791   0.04463
C          C       0.44223   0.85337   0.40717   0.05107
C          C       0.59247   0.21284   0.22530   0.05010
C          C       0.19959   0.63379   0.42466   0.04573
C          C       0.83345   0.43857   0.21569   0.04789
C          C       0.49206   0.55547   0.42726   0.18213
C          C       0.54048   0.50971   0.20831   0.18111
C          C       0.49830   0.98571   0.41118   0.18132
C          C       0.53993   0.08118   0.20751   0.18204
C          C       0.06500   0.56289   0.42424   0.18044
C          C       0.96785   0.51416   0.21350   0.18069
C          C       0.44623   0.58988   0.33215   0.10918
C          C       0.58654   0.47536   0.30071   0.10911
C          C       0.46532   0.90397   0.31337   0.10715
C          C       0.57063   0.16220   0.31488   0.11001
C          C       0.14813   0.60771   0.33026   0.10913
C          C       0.88492   0.46700   0.31002   0.10942
C          C       0.57545   0.22271   0.96842  -0.13848
C          C       0.82185   0.41117   0.95454  -0.13532
C          C       0.64104   0.46702   0.94958  -0.13169
C          C       0.60035   0.26902   0.84387  -0.07733
C          C       0.77474   0.38802   0.83056  -0.07654
C          C       0.66124   0.44126   0.82848  -0.07631
C          C       0.65343   0.39928   0.97568  -0.07716
C          C       0.64334   0.30636   0.98742  -0.07589
C          C       0.73816   0.39249   0.97837  -0.07526
C          C       0.45883   0.84309   0.66427  -0.13934
C          C       0.21272   0.66108   0.68673  -0.13254
C          C       0.39153   0.59848   0.67899  -0.13054
C          C       0.43341   0.79676   0.78908  -0.07583
C          C       0.25978   0.68186   0.80861  -0.07799
C          C       0.37068   0.62380   0.79699  -0.07735
C          C       0.37841   0.66573   0.64928  -0.07893
C          C       0.39023   0.75970   0.64594  -0.07517
C          C       0.29473   0.67510   0.65788  -0.07583
N          N       0.46509   0.57616   0.53189  -0.28710
N          N       0.56757   0.48922   0.10273  -0.28598
N          N       0.47902   0.93778   0.51261  -0.28428
N          N       0.55823   0.12920   0.11146  -0.28656
N          N       0.11407   0.58937   0.52805  -0.28611
N          N       0.91873   0.48659   0.11124  -0.28629

