data_crystal

_audit_creation_method 'AiiDA-DDEC plugin'

_cell_length_a        32.02267
_cell_length_b        31.56815
_cell_length_c         7.89415

_cell_angle_alpha     84.49583
_cell_angle_beta     120.30413
_cell_angle_gamma     119.73802

_symmetry_space_group_name_Hall 'P 1'
_symmetry_space_group_name_H-M  'P 1'

loop_
_symmetry_equiv_pos_as_xyz
 'x,y,z'

loop_
_atom_site_label
_atom_site_type_symbol
_atom_site_fract_x
_atom_site_fract_y
_atom_site_fract_z
_atom_site_charge
H          H       0.46597   0.18580   0.25492   0.07342
H          H       0.82969   0.25964   0.28189   0.08067
H          H       0.74198   0.55604   0.17886   0.07582
H          H       0.38484   0.11851   0.24935   0.13344
H          H       0.90363   0.24753   0.33732   0.14093
H          H       0.75502   0.63652   0.16964   0.13483
H          H       0.42524   0.26900   0.08644   0.30692
H          H       0.71319   0.15504   0.94961   0.30714
H          H       0.84041   0.56786   0.09675   0.30532
H          H       0.52141   0.19953   0.15951   0.14488
H          H       0.79508   0.30886   0.11396   0.14431
H          H       0.68509   0.48184   0.12495   0.14761
H          H       0.53425   0.34304   0.14857   0.16087
H          H       0.65235   0.17949   0.10406   0.16225
H          H       0.81320   0.46774   0.12494   0.15798
H          H       0.20771   0.14895   0.00872   0.07386
H          H       0.83374   0.06828   0.93390   0.07893
H          H       0.93651   0.77881   0.10676   0.07458
H          H       0.28828   0.21525   0.01316   0.13383
H          H       0.76071   0.08290   0.86295   0.13692
H          H       0.92167   0.69701   0.10553   0.13376
H          H       0.24685   0.06440   0.16808   0.30484
H          H       0.95114   0.17551   0.25083   0.30792
H          H       0.83568   0.76564   0.17232   0.30409
H          H       0.14704   0.13211   0.07855   0.14530
H          H       0.87162   0.02100   0.11136   0.14538
H          H       0.99354   0.85309   0.16658   0.14725
H          H       0.14109   0.99126   0.12318   0.16134
H          H       0.01043   0.14923   0.09722   0.16105
H          H       0.86185   0.86498   0.14814   0.15888
H          H       0.45871   0.18129   0.73557   0.07409
H          H       0.82896   0.26403   0.78363   0.07879
H          H       0.72965   0.55627   0.66230   0.07742
H          H       0.38018   0.11628   0.74779   0.13409
H          H       0.90183   0.24994   0.84902   0.13787
H          H       0.74764   0.63939   0.67988   0.13746
H          H       0.42022   0.26669   0.58834   0.30696
H          H       0.71135   0.15830   0.45667   0.31052
H          H       0.83186   0.56949   0.60796   0.30018
H          H       0.51830   0.19945   0.66103   0.14525
H          H       0.79330   0.31339   0.62064   0.14525
H          H       0.67819   0.48278   0.63078   0.14615
H          H       0.52862   0.34196   0.65721   0.16236
H          H       0.65032   0.18258   0.60315   0.16251
H          H       0.80575   0.47076   0.61637   0.15778
H          H       0.20385   0.14713   0.51668   0.07271
H          H       0.83273   0.07385   0.42604   0.08029
H          H       0.92883   0.77961   0.61252   0.07572
H          H       0.28248   0.21204   0.50962   0.13299
H          H       0.75939   0.08866   0.35407   0.13730
H          H       0.91352   0.69862   0.61178   0.13356
H          H       0.24411   0.06304   0.68409   0.30752
H          H       0.94989   0.17938   0.75553   0.30827
H          H       0.83014   0.76841   0.69223   0.30549
H          H       0.14551   0.13216   0.59015   0.14412
H          H       0.86943   0.02533   0.61770   0.14549
H          H       0.98282   0.85178   0.64923   0.14652
H          H       0.13355   0.98881   0.61647   0.16100
H          H       0.00970   0.15264   0.60764   0.16176
H          H       0.85546   0.86785   0.64708   0.15689
C          C       0.44625   0.20824   0.19469   0.08653
C          C       0.79640   0.22406   0.17398   0.08223
C          C       0.77414   0.56486   0.14370   0.08590
C          C       0.39120   0.18803   0.16452  -0.04895
C          C       0.81410   0.19423   0.13451  -0.04731
C          C       0.80628   0.61602   0.13617  -0.05157
C          C       0.36308   0.21556   0.09471   0.28257
C          C       0.77306   0.14699  -0.00194   0.27352
C          C       0.85445   0.63360   0.11945   0.27722
C          C       0.36382   0.13976   0.19818  -0.24036
C          C       0.87240   0.21157   0.23352  -0.24590
C          C       0.79132   0.64969   0.15497  -0.23819
C          C       0.52247   0.26940   0.16180   0.23317
C          C       0.72711   0.24078   0.11569   0.22811
C          C       0.75405   0.48177   0.12936   0.23408
C          C       0.54345   0.23913   0.16142  -0.29940
C          C       0.75856   0.29253   0.12883  -0.30819
C          C       0.70423   0.46069   0.13439  -0.29168
C          C       0.59266   0.25995   0.15843   0.19490
C          C       0.73977   0.32245   0.14358   0.19307
C          C       0.67820   0.41126   0.14986   0.20364
C          C       0.62293   0.31111   0.16514  -0.05219
C          C       0.69095   0.30162   0.15120  -0.04653
C          C       0.70000   0.38172   0.15565  -0.04981
C          C       0.60180   0.34096   0.16167   0.19044
C          C       0.65964   0.25020   0.13764   0.19781
C          C       0.74844   0.40217   0.14581   0.19055
C          C       0.55163   0.32031   0.15734  -0.27658
C          C       0.67680   0.21945   0.11660  -0.27165
C          C       0.77562   0.45183   0.13326  -0.28495
C          C       0.22662   0.12571   0.06521   0.08678
C          C       0.86758   0.10505   0.03379   0.08684
C          C       0.90378   0.76923   0.13974   0.08454
C          C       0.28178   0.14571   0.09589  -0.04610
C          C       0.85013   0.13578   0.06833  -0.05259
C          C       0.87116   0.71780   0.14324  -0.05072
C          C       0.30959   0.11784   0.16363   0.27921
C          C       0.89117   0.18327   0.20307   0.27832
C          C       0.82258   0.70014   0.15756   0.27666
C          C       0.30918   0.19393   0.06279  -0.23757
C          C       0.79186   0.11872   0.96781  -0.24101
C          C       0.88600   0.68407   0.12381  -0.24219
C          C       0.14974   0.06370   0.09366   0.23086
C          C       0.93758   0.08839   0.09732   0.23127
C          C       0.92249   0.85184   0.15075   0.23476
C          C       0.12649   0.09280   0.08354  -0.29897
C          C       0.90795   0.03705   0.09537  -0.30679
C          C       0.97290   0.87346   0.14898  -0.28855
C          C       0.07665   0.07128   0.08205   0.19435
C          C       0.92841   0.00766   0.09094   0.19546
C          C       0.99730   0.92209   0.12467   0.20286
C          C       0.04830   0.02057   0.08596  -0.04313
C          C       0.97741   0.02863   0.08409  -0.04947
C          C       0.97302   0.95038   0.10522  -0.04666
C          C       0.07198   0.99200   0.10223   0.19319
C          C       0.00679   0.07959   0.08641   0.20027
C          C       0.92431   0.92970   0.11383   0.18932
C          C       0.12224   0.01320   0.10696  -0.27391
C          C       0.98769   0.10968   0.09546  -0.27386
C          C       0.89923   0.88092   0.13804  -0.27968
C          C       0.44052   0.20521   0.68805   0.08837
C          C       0.79511   0.22795   0.67966   0.08582
C          C       0.76432   0.56636   0.64001   0.08113
C          C       0.38572   0.18518   0.66016  -0.04382
C          C       0.81238   0.19765   0.64026  -0.05058
C          C       0.79762   0.61797   0.64039  -0.05193
C          C       0.35745   0.21261   0.59126   0.27736
C          C       0.77135   0.15108   0.49969   0.27712
C          C       0.84607   0.63530   0.62534   0.27665
C          C       0.35896   0.13733   0.69725  -0.23976
C          C       0.87068   0.21481   0.74020  -0.24372
C          C       0.78330   0.65202   0.66174  -0.24530
C          C       0.51777   0.26854   0.66447   0.23401
C          C       0.72539   0.24468   0.61987   0.23373
C          C       0.74664   0.48369   0.62790   0.23238
C          C       0.53949   0.23909   0.66197  -0.29859
C          C       0.75612   0.29655   0.63179  -0.30619
C          C       0.69696   0.46174   0.63424  -0.28635
C          C       0.58831   0.26077   0.65569   0.19329
C          C       0.73600   0.32577   0.64229   0.19511
C          C       0.67134   0.41214   0.64686   0.20020
C          C       0.61758   0.31195   0.66137  -0.04246
C          C       0.68671   0.30407   0.64736  -0.05012
C          C       0.69392   0.38342   0.65088  -0.04247
C          C       0.59581   0.34105   0.66049   0.19213
C          C       0.65620   0.25268   0.63496   0.20072
C          C       0.74246   0.40465   0.64120   0.18788
C          C       0.54604   0.31965   0.66008  -0.27523
C          C       0.67448   0.22262   0.61706  -0.27480
C          C       0.76874   0.45444   0.62845  -0.27659
C          C       0.22248   0.12370   0.57169   0.08863
C          C       0.86616   0.10989   0.53071   0.08587
C          C       0.89583   0.77069   0.64321   0.08518
C          C       0.27726   0.14339   0.60009  -0.04870
C          C       0.84865   0.14053   0.56586  -0.04864
C          C       0.86334   0.71966   0.65032  -0.05275
C          C       0.30554   0.11599   0.67000   0.28012
C          C       0.88960   0.18717   0.70575   0.27455
C          C       0.81556   0.70255   0.66914   0.27727
C          C       0.30378   0.19104   0.56139  -0.23660
C          C       0.79040   0.12373   0.46362  -0.24239
C          C       0.87766   0.68571   0.62895  -0.23569
C          C       0.14511   0.06246   0.59811   0.23254
C          C       0.93595   0.09212   0.60302   0.22919
C          C       0.91456   0.85308   0.64571   0.23526
C          C       0.12335   0.09268   0.59099  -0.30012
C          C       0.90557   0.04091   0.60086  -0.30904
C          C       0.96397   0.87338   0.63850  -0.29054
C          C       0.07335   0.07198   0.58810   0.19381
C          C       0.92545   0.01098   0.59702   0.19379
C          C       0.98971   0.92224   0.61774   0.20086
C          C       0.04379   0.02121   0.58909  -0.05055
C          C       0.97423   0.03121   0.58939  -0.04709
C          C       0.96720   0.95176   0.60409  -0.04725
C          C       0.06588   0.99149   0.60080   0.19169
C          C       0.00460   0.08220   0.59268   0.20162
C          C       0.91891   0.93199   0.61455   0.18687
C          C       0.11613   0.01172   0.60582  -0.27690
C          C       0.98632   0.11298   0.60291  -0.27519
C          C       0.89265   0.88313   0.63626  -0.28246
N          N       0.47175   0.25142   0.15307  -0.29716
N          N       0.74284   0.20903   0.08944  -0.27718
N          N       0.78414   0.53129   0.11721  -0.29599
N          N       0.20076   0.08225   0.10364  -0.29066
N          N       0.92100   0.12026   0.11521  -0.28155
N          N       0.89302   0.80238   0.16438  -0.29501
N          N       0.67341   0.33215   0.17062  -0.01704
N          N       0.99755  -0.00102   0.07832  -0.01540
N          N       0.46712   0.24975   0.65747  -0.29563
N          N       0.74162   0.21301   0.59757  -0.28452
N          N       0.77627   0.53361   0.62016  -0.29420
N          N       0.19627   0.08029   0.60982  -0.30051
N          N       0.91964   0.12436   0.61924  -0.28107
N          N       0.88517   0.80416   0.66451  -0.29515
N          N       0.66744   0.33365   0.66205  -0.01528
N          N       0.99296   0.00059   0.58065  -0.01761
O          O       0.38772   0.26190   0.06100  -0.42426
O          O       0.71682   0.12929   0.89931  -0.42822
O          O       0.86960   0.60227   0.09919  -0.42235
O          O       0.62920   0.39134   0.15510  -0.17808
O          O       0.61031   0.22876   0.14236  -0.17966
O          O       0.77007   0.37309   0.14600  -0.17330
O          O       0.28427   0.07110   0.19342  -0.42411
O          O       0.94743   0.20114   0.30105  -0.42902
O          O       0.80719   0.73142   0.17611  -0.41565
O          O       0.04696   0.94257   0.12305  -0.17866
O          O       0.05616   0.10135   0.08220  -0.18077
O          O       0.89996   0.95748   0.09846  -0.17288
O          O       0.38166   0.25869   0.55524  -0.42399
O          O       0.71510   0.13334   0.40279  -0.43061
O          O       0.86054   0.60367   0.60297  -0.41668
O          O       0.62205   0.39127   0.65092  -0.17630
O          O       0.60658   0.23034   0.63799  -0.18090
O          O       0.76521   0.37647   0.64219  -0.17490
O          O       0.28160   0.07024   0.70920  -0.42169
O          O       0.94596   0.20521   0.80350  -0.42885
O          O       0.80183   0.73442   0.69643  -0.42220
O          O       0.03891   0.94155   0.61391  -0.17766
O          O       0.05387   0.10294   0.58835  -0.17860
O          O       0.89645   0.96100   0.60588  -0.17268

