data_crystal

_audit_creation_method 'AiiDA-DDEC plugin'

_cell_length_a        36.53244
_cell_length_b        22.93860
_cell_length_c         8.61984

_cell_angle_alpha     73.32601
_cell_angle_beta     113.21586
_cell_angle_gamma     95.22958

_symmetry_space_group_name_Hall 'P 1'
_symmetry_space_group_name_H-M  'P 1'

loop_
_symmetry_equiv_pos_as_xyz
 'x,y,z'

loop_
_atom_site_label
_atom_site_type_symbol
_atom_site_fract_x
_atom_site_fract_y
_atom_site_fract_z
_atom_site_charge
H          H       0.09480   0.80580   0.30883   0.10798
H          H       0.13078   0.71472   0.33639   0.10402
H          H       0.20448   0.82816   0.09377   0.11384
H          H       0.16810   0.92003   0.06382   0.09734
H          H       0.35156   0.41431   0.39471   0.11648
H          H       0.41567   0.41153   0.37358   0.12783
H          H       0.32036   0.57798   0.49922   0.11145
H          H       0.32372   0.61696   0.19859   0.11746
H          H       0.28895   0.70685   0.17759   0.12365
H          H       0.21815   0.51278   0.17560   0.10953
H          H       0.23046   0.47568   0.46083   0.11391
H          H       0.19294   0.37853   0.46209   0.12038
H          H       0.30862   0.40192   0.49057   0.11988
H          H       0.18297   0.02710   0.00099   0.10660
H          H       0.22549   0.11622   0.04972   0.10709
H          H       0.14792   0.23036   0.05260   0.11275
H          H       0.10423   0.14140   0.00802   0.10986
H          H       0.52587   0.59365   0.49762   0.15532
H          H       0.52645   0.37254   0.18547   0.15516
H          H       0.16348   0.97105   0.25006   0.10797
H          H       0.07633   0.11314   0.25520   0.10368
H          H       0.00455   0.11995   0.18119   0.10913
H          H       0.97787   0.85406   0.45334   0.10375
H          H       0.05160   0.84833   0.02508   0.10857
H          H       0.89130   0.99779   0.45389   0.10727
H          H       0.87015   0.94093   0.20629   0.11032
H          H       0.82753   0.85255   0.14906   0.10753
H          H       0.90521   0.73993   0.14767   0.11237
H          H       0.95031   0.82740   0.19684   0.11007
H          H       0.69845   0.55277   0.27214   0.11761
H          H       0.63462   0.55405   0.29701   0.12653
H          H       0.73249   0.39009   0.18416   0.11283
H          H       0.72953   0.35343   0.48533   0.11701
H          H       0.76754   0.26376   0.02083   0.12429
H          H       0.83647   0.45981   0.00318   0.11071
H          H       0.82206   0.49248   0.22662   0.11289
H          H       0.85925   0.58983   0.23163   0.12068
H          H       0.74286   0.57202   0.19406   0.12036
H          H       0.96200   0.16117   0.40764   0.10947
H          H       0.92571   0.25281   0.37434   0.10448
H          H       0.85299   0.14135   0.11515   0.11320
H          H       0.88949   0.04922   0.14658   0.09738
H          H       0.38517   0.57357   0.48025   0.12735
H          H       0.18507   0.60173   0.16693   0.10661
H          H       0.27369   0.30510   0.49366   0.11582
H          H       0.66692   0.39250   0.19734   0.12840
H          H       0.87065   0.36984   0.02297   0.10630
H          H       0.77728   0.66879   0.20012   0.11525
H          H       0.24110   0.22559   0.45614   0.06963
H          H       0.81518   0.74350   0.22826   0.07096
H          H       0.87503   0.30089   0.40404   0.05742
H          H       0.18212   0.66769   0.30315   0.05676
H          H       0.09366   0.80344   0.80906   0.10861
H          H       0.13060   0.71309   0.83819   0.10360
H          H       0.20390   0.82819   0.59642   0.11425
H          H       0.16666   0.91930   0.56591   0.09753
H          H       0.35129   0.41307   0.92329   0.11712
H          H       0.41450   0.40658   0.89735   0.13346
H          H       0.32280   0.58606  -0.00200   0.11304
H          H       0.32227   0.61401   0.69615   0.11731
H          H       0.28809   0.70506   0.67188   0.12341
H          H       0.21613   0.51175   0.67580   0.10981
H          H       0.22955   0.47911   0.95708   0.11289
H          H       0.19138   0.38263   0.96502   0.12110
H          H       0.30550   0.39900   0.00145   0.11696
H          H       0.18490   0.02948   0.49827   0.10898
H          H       0.22726   0.11873   0.54674   0.10651
H          H       0.14762   0.22712   0.55038   0.11334
H          H       0.10329   0.13840   0.50746   0.10993
H          H       0.52898   0.60355   0.98925   0.15548
H          H       0.52399   0.36243   0.69197   0.15629
H          H       0.16169   0.96919   0.74852   0.10796
H          H       0.07574   0.10906   0.76852   0.10279
H          H       0.00403   0.11596   0.69820   0.10923
H          H       0.97996   0.85485   0.95330   0.10327
H          H       0.04940   0.84718   0.52279   0.11003
H          H       0.89286   0.99778   0.95581   0.10870
H          H       0.87211   0.94165   0.70466   0.10573
H          H       0.82862   0.85382   0.65064   0.10749
H          H       0.90487   0.73807   0.64355   0.11231
H          H       0.94887   0.82635   0.69639   0.10918
H          H       0.70152   0.55526   0.76087   0.11764
H          H       0.63726   0.55942   0.78052   0.12831
H          H       0.73174   0.38620   0.68917   0.11250
H          H       0.73198   0.35412   0.99132   0.11596
H          H       0.76478   0.26341   0.51072   0.12316
H          H       0.83464   0.45843   0.50439   0.10922
H          H       0.82325   0.48985   0.72198   0.11282
H          H       0.86117   0.58638   0.72145   0.12097
H          H       0.74792   0.57119   0.68630   0.11755
H          H       0.96090   0.16250   0.88931   0.10799
H          H       0.92492   0.25391   0.86058   0.10418
H          H       0.84785   0.14058   0.59434   0.11439
H          H       0.88483   0.04825   0.63197   0.09734
H          H       0.38822   0.58528   0.98437   0.13463
H          H       0.18351   0.60210   0.66222   0.10578
H          H       0.27149   0.30161  -0.00175   0.11464
H          H       0.66639   0.38525   0.70613   0.12941
H          H       0.86839   0.36925   0.51958   0.10734
H          H       0.78184   0.66853   0.69452   0.11483
H          H       0.23846   0.22356   0.96164   0.06675
H          H       0.81471   0.74629   0.73463   0.07032
H          H       0.87469   0.30139   0.89589   0.05889
H          H       0.18107   0.66681   0.79918   0.05842
C          C       0.12824   0.86987   0.18105   0.07239
C          C       0.11802   0.81100   0.25710  -0.13222
C          C       0.13866   0.75981   0.27469  -0.12948
C          C       0.17013   0.76545   0.21675   0.05812
C          C       0.18061   0.82417   0.14137  -0.09911
C          C       0.16022   0.87506   0.12547  -0.13645
C          C       0.27408   0.55625   0.18926   0.18277
C          C       0.27243   0.44624   0.22028   0.15946
C          C       0.33185   0.50153   0.20125   0.17623
C          C       0.35886   0.45219   0.30377  -0.16722
C          C       0.39588   0.45068   0.29395  -0.16835
C          C       0.40740   0.49888   0.18129   0.17059
C          C       0.38068   0.54822   0.07697  -0.15488
C          C       0.34361   0.54897   0.08677  -0.17101
C          C       0.29309   0.61281   0.18775  -0.18194
C          C       0.27376   0.66378   0.17901  -0.13601
C          C       0.23500   0.66126   0.17733   0.18566
C          C       0.21565   0.60536   0.17505  -0.16374
C          C       0.23450   0.55455   0.17963  -0.19539
C          C       0.23859   0.44088   0.07429  -0.15694
C          C       0.21740   0.38741   0.07858  -0.14363
C          C       0.23011   0.33648   0.22665   0.19492
C          C       0.26395   0.34234   0.37384  -0.15732
C          C       0.28426   0.39693   0.37192  -0.15327
C          C       0.19075   0.71130   0.23310   0.06862
C          C       0.14143   0.07910   0.24986   0.08216
C          C       0.17675   0.07330   0.39998  -0.13850
C          C       0.20057   0.12351   0.42720  -0.12248
C          C       0.19023   0.18075   0.30270   0.04535
C          C       0.15523   0.18636   0.15027  -0.10502
C          C       0.13121   0.13672   0.12589  -0.13361
C          C       0.21531   0.23321   0.33022   0.07392
C          C       0.55565   0.45314   0.08280  -0.05636
C          C       0.55640   0.51685   0.02984  -0.05856
C          C       0.52840   0.55410   0.03104  -0.07486
C          C       0.49953   0.52290   0.08895  -0.05502
C          C       0.49899   0.45928   0.14266  -0.06111
C          C       0.52701   0.42197   0.14222  -0.08105
C          C       0.11550   0.02695   0.21565   0.01808
C          C       0.07416   0.03023   0.17919   0.03118
C          C       0.04920   0.98191   0.12612   0.00402
C          C       0.06609   0.92963   0.11673   0.03170
C          C       0.10812   0.92485   0.16935   0.02697
C          C       0.13147   0.97416   0.21406  -0.18480
C          C       0.05682   0.07906   0.20138  -0.13783
C          C       0.01676   0.08302   0.15931  -0.12801
C          C       0.99028   0.03870   0.08965   0.03254
C          C       0.00720   0.98621   0.08157   0.00507
C          C       0.98216   0.93799   0.02847   0.02959
C          C       0.99760   0.88782   0.50786  -0.13565
C          C       0.03951   0.88520   0.04778  -0.12903
C          C       0.94829   0.04381   0.03593   0.02609
C          C       0.92338   0.99381   0.49347  -0.18501
C          C       0.93910   0.94075   0.49272   0.01861
C          C       0.91272   0.88953   0.45454   0.08137
C          C       0.87778   0.89657   0.30231  -0.14083
C          C       0.85385   0.84686   0.27033  -0.12448
C          C       0.86362   0.78912   0.39259   0.04695
C          C       0.89875   0.78414   0.05099  -0.10523
C          C       0.92354   0.83279   0.07780  -0.13309
C          C       0.78080   0.41584   0.99109   0.18177
C          C       0.77981   0.52482   0.46114   0.16082
C          C       0.72046   0.46842   0.47669   0.17421
C          C       0.69226   0.51579   0.36874  -0.16584
C          C       0.65535   0.51629   0.38047  -0.16727
C          C       0.64519   0.46888   0.49967   0.17072
C          C       0.67423   0.42764   0.09987  -0.14792
C          C       0.71121   0.42595   0.09032  -0.17256
C          C       0.76243   0.35864  -0.00031  -0.18061
C          C       0.78232   0.30724   0.01460  -0.13723
C          C       0.82112   0.30974   0.01669   0.18434
C          C       0.83999   0.36619   0.01375  -0.16478
C          C       0.82056   0.41754   0.00266  -0.19482
C          C       0.81393   0.53126   0.11084  -0.15813
C          C       0.83452   0.58516   0.11362  -0.14496
C          C       0.82192   0.63471   0.46323   0.19572
C          C       0.78764   0.63021   0.31623  -0.15777
C          C       0.76747   0.57560   0.31356  -0.15426
C          C       0.83866   0.73690   0.36045   0.07443
C          C       0.92823   0.09904   0.02281   0.07398
C          C       0.93792   0.15639   0.45408  -0.13263
C          C       0.91714   0.20787   0.43337  -0.12967
C          C       0.88459   0.20285   0.48420   0.05811
C          C       0.87645   0.14514   0.06513  -0.09691
C          C       0.89680   0.09410   0.08162  -0.13767
C          C       0.86445   0.25767   0.46667   0.06584
C          C       0.46439   0.44090   0.19365   0.42313
C          C       0.46556   0.54745   0.10728   0.43237
C          C       0.58829   0.52576   0.48953   0.42670
C          C       0.58933   0.42812   0.06360   0.42972
C          C       0.12677   0.86819   0.68128   0.07165
C          C       0.11689   0.80909   0.75726  -0.13348
C          C       0.13804   0.75835   0.77550  -0.12949
C          C       0.16955   0.76456   0.71743   0.05770
C          C       0.17982   0.82358   0.64305  -0.09768
C          C       0.15898   0.87405   0.62678  -0.13638
C          C       0.27272   0.55375   0.69402   0.18469
C          C       0.27098   0.44317   0.72905   0.16116
C          C       0.33060   0.49693   0.71480   0.17768
C          C       0.35785   0.44848   0.82444  -0.16737
C          C       0.39439   0.44493   0.81187  -0.16795
C          C       0.40490   0.49045   0.68977   0.16878
C          C       0.37798   0.53890   0.57907  -0.14996
C          C       0.34141   0.54162   0.59151  -0.17067
C          C       0.29179   0.61039   0.68764  -0.18364
C          C       0.27269   0.66211   0.67603  -0.13559
C          C       0.23404   0.66036   0.67534   0.18413
C          C       0.21426   0.60476   0.67286  -0.16471
C          C       0.23287   0.55319   0.68050  -0.19537
C          C       0.23858   0.43755   0.57840  -0.15823
C          C       0.21787   0.38365   0.57884  -0.14284
C          C       0.22973   0.33290   0.72759   0.19493
C          C       0.26233   0.33896   0.87871  -0.15853
C          C       0.28209   0.39382   0.88051  -0.15230
C          C       0.19010   0.71061   0.73184   0.06502
C          C       0.14006   0.07670   0.75132   0.08166
C          C       0.17519   0.07082   0.90210  -0.13754
C          C       0.19911   0.12090   0.92906  -0.12431
C          C       0.18920   0.17780   0.80286   0.04490
C          C       0.15452   0.18334   0.64910  -0.10521
C          C       0.13019   0.13396   0.62563  -0.13340
C          C       0.21417   0.23023   0.83141   0.07688
C          C       0.55322   0.44349   0.59335  -0.05559
C          C       0.55367   0.50714   0.53989  -0.06305
C          C       0.52543   0.54420   0.53947  -0.08110
C          C       0.49649   0.51265   0.59594  -0.05505
C          C       0.49580   0.44897   0.64902  -0.05978
C          C       0.52423   0.41192   0.64987  -0.07376
C          C       0.11398   0.02471   0.71761   0.01994
C          C       0.07281   0.02779   0.68415   0.03026
C          C       0.04769   0.97981   0.62985   0.00365
C          C       0.06438   0.92774   0.61807   0.03309
C          C       0.10637   0.92291   0.66957   0.02936
C          C       0.12975   0.97219   0.71401  -0.18727
C          C       0.05589   0.07590   0.71126  -0.13397
C          C       0.01590   0.07998   0.67104  -0.13179
C          C       0.98909   0.03660   0.59761   0.03416
C          C       0.00574   0.98437   0.58649   0.00424
C          C       0.98052   0.93658   0.53155   0.03108
C          C      -0.00053   0.88902   0.00673  -0.13299
C          C       0.03759   0.88374   0.54793  -0.13095
C          C       0.94702   0.04243   0.54128   0.02483
C          C       0.92486   0.99464   0.99162  -0.18459
C          C       0.94079   0.94175   0.99076   0.01925
C          C       0.91434   0.89047   0.95417   0.08084
C          C       0.87933   0.89761   0.80222  -0.13797
C          C       0.85487   0.84829   0.77211  -0.12352
C          C       0.86417   0.79095   0.89637   0.04475
C          C       0.89804   0.78249   0.54783  -0.10635
C          C       0.92226   0.83157   0.57673  -0.13140
C          C       0.77891   0.41459   0.49280   0.18310
C          C       0.78182   0.52613   0.95872   0.16193
C          C       0.72219   0.47130   0.96884   0.17656
C          C       0.69470   0.51934   0.85797  -0.16457
C          C       0.65773   0.52169   0.86747  -0.16460
C          C       0.64709   0.47569   0.98796   0.16786
C          C       0.67302   0.42140   0.60862  -0.14993
C          C       0.71000   0.42176   0.59734  -0.16872
C          C       0.76019   0.35776   0.49642  -0.18223
C          C       0.77987   0.30660   0.50847  -0.13417
C          C       0.81880   0.30906   0.51190   0.18206
C          C       0.83782   0.36530   0.51158  -0.16175
C          C       0.81858   0.41633   0.50333  -0.19394
C          C       0.81390   0.52907   0.60756  -0.15792
C          C       0.83492   0.58264   0.60750  -0.14449
C          C       0.82296   0.63633   0.96594   0.19330
C          C       0.79072   0.63077   0.81312  -0.15600
C          C       0.77099   0.57595   0.80854  -0.15397
C          C       0.83887   0.73905   0.86539   0.07333
C          C       0.92683   0.09775   0.52677   0.07358
C          C       0.93804   0.15764   0.94304  -0.13472
C          C       0.91744   0.20894   0.92493  -0.13037
C          C       0.88648   0.20367   0.98593   0.05648
C          C       0.87291   0.14430   0.55421  -0.09760
C          C       0.89358   0.09311   0.57401  -0.13739
C          C       0.86591   0.25823   0.96744   0.06489
C          C       0.46079   0.43120   0.69823   0.42577
C          C       0.46245   0.53784   0.61150   0.42749
C          C       0.59115   0.53474   0.97913   0.42466
C          C       0.58765   0.41913   0.57773   0.43277
N          N       0.21804   0.71448   0.17064  -0.29211
N          N       0.20693   0.28468   0.21003  -0.30818
N          N       0.83850   0.25600   0.02867  -0.29192
N          N       0.84491   0.68644   0.48391  -0.30882
N          N       0.29376   0.50241   0.20998  -0.13598
N          N       0.75867   0.46848   0.46766  -0.13811
N          N       0.44456   0.49584   0.16604  -0.21346
N          N       0.61011   0.47940   0.00344  -0.21551
N          N       0.21744   0.71382   0.66962  -0.29257
N          N       0.20707   0.28082   0.70806  -0.30782
N          N       0.83584   0.25550   0.52092  -0.29283
N          N       0.84560   0.68828   0.98778  -0.30629
N          N       0.29254   0.49908   0.72325  -0.14160
N          N       0.76049   0.47001   0.96209  -0.13986
N          N       0.44170   0.48662   0.67270  -0.21408
N          N       0.60816   0.47101   0.51672  -0.21507
O          O       0.45733   0.60062   0.08169  -0.38241
O          O       0.45481   0.38895   0.24787  -0.39094
O          O       0.59812   0.57771   0.43687  -0.39216
O          O       0.59773   0.37485   0.09101  -0.38462
O          O       0.45385   0.59132   0.58018  -0.38422
O          O       0.44999   0.37983   0.74903  -0.38956
O          O       0.60190   0.58621   0.92886  -0.38871
O          O       0.59665   0.36598   0.60798  -0.38153

