data_crystal

_audit_creation_method 'AiiDA-DDEC plugin'

_cell_length_a        37.10831
_cell_length_b        22.76983
_cell_length_c         9.04551

_cell_angle_alpha     73.41691
_cell_angle_beta     118.01336
_cell_angle_gamma     93.47897

_symmetry_space_group_name_Hall 'P 1'
_symmetry_space_group_name_H-M  'P 1'

loop_
_symmetry_equiv_pos_as_xyz
 'x,y,z'

loop_
_atom_site_label
_atom_site_type_symbol
_atom_site_fract_x
_atom_site_fract_y
_atom_site_fract_z
_atom_site_charge
H          H       0.10109   0.80396   0.30109   0.11001
H          H       0.13991   0.71101   0.34169   0.10612
H          H       0.20974   0.82373   0.12008   0.11265
H          H       0.17023   0.91745   0.07688   0.09573
H          H       0.35820   0.38967   0.44677   0.11514
H          H       0.42112   0.37874   0.42562   0.11826
H          H       0.32370   0.56324   0.04458   0.10816
H          H       0.33060   0.59806   0.24287   0.11591
H          H       0.29662   0.69277   0.21499   0.11969
H          H       0.22438   0.50301   0.21380   0.10984
H          H       0.23192   0.46396   0.48173   0.11626
H          H       0.19186   0.37090   0.48152   0.12085
H          H       0.30718   0.39121   0.03690   0.11896
H          H       0.18898   0.01933   0.00071   0.10812
H          H       0.23374   0.10461   0.05416   0.10713
H          H       0.15366   0.22457   0.07664   0.11329
H          H       0.11058   0.13778   0.00582   0.10743
H          H       0.55724   0.37595   0.16545   0.10269
H          H       0.55291   0.57581   0.47409   0.11210
H          H       0.49463   0.58868   0.53174   0.10171
H          H       0.49998   0.39165   0.22692   0.11137
H          H       0.16693   0.96880   0.25722   0.10984
H          H       0.07730   0.10917   0.26213   0.10511
H          H       0.00421   0.11577   0.18195   0.11028
H          H       0.97554   0.86194   0.41496   0.09994
H          H       0.05446   0.84878   0.01211   0.10842
H          H       0.88629   0.00331   0.42129   0.10843
H          H       0.86076   0.95232   0.17202   0.11110
H          H       0.81676   0.86652   0.11258   0.10608
H          H       0.90566   0.74135   0.12685   0.11160
H          H       0.95107   0.82649   0.18795   0.11023
H          H       0.69468   0.58104   0.24534   0.11223
H          H       0.63276   0.59229   0.27392   0.11814
H          H       0.73143   0.39684   0.13430   0.10970
H          H       0.72340   0.37197   0.44263   0.11254
H          H       0.75889   0.27802   0.47563   0.11823
H          H       0.82851   0.47007   0.47182   0.10811
H          H       0.82242   0.50123   0.20108   0.11593
H          H       0.86043   0.59656   0.20242   0.12103
H          H       0.73936   0.58076   0.14151   0.11665
H          H       0.95161   0.16568   0.37826   0.10988
H          H       0.91406   0.25938   0.34232   0.10381
H          H       0.85064   0.14653   0.07244   0.11265
H          H       0.88876   0.05107   0.11655   0.09609
H          H       0.38678   0.55255   0.02718   0.10536
H          H       0.19200   0.59640   0.19551   0.10740
H          H       0.26901   0.29778   0.03660   0.11631
H          H       0.66824   0.40589   0.15018   0.10816
H          H       0.86807   0.37441  -0.00047   0.10857
H          H       0.77694   0.67471   0.13791   0.11379
H          H       0.24799   0.21182   0.96016   0.06835
H          H       0.80259   0.76032   0.19761   0.06741
H          H       0.86453   0.30920   0.37044   0.05805
H          H       0.19257   0.66207   0.32671   0.05846
H          H       0.45294   0.54815   0.14113   0.05947
H          H       0.60321   0.41492   0.05359   0.06014
H          H       0.09803   0.80644   0.81190   0.10880
H          H       0.13679   0.71274   0.85475   0.10555
H          H       0.20197   0.82338   0.60480   0.11312
H          H       0.16309   0.91775   0.56173   0.09792
H          H       0.35196   0.38966   0.93627   0.11227
H          H       0.41538   0.37819   0.91830   0.11896
H          H       0.32070   0.56620   0.54837   0.10947
H          H       0.32503   0.59962   0.74103   0.11439
H          H       0.28982   0.69347   0.71042   0.12029
H          H       0.21966   0.50182   0.71184   0.10930
H          H       0.23256   0.46463  -0.00037   0.11696
H          H       0.19373   0.37048   0.00833   0.12187
H          H       0.31585   0.38898   0.54649   0.11574
H          H       0.18135   0.02590   0.53755   0.10871
H          H       0.22285   0.11303   0.60998   0.10315
H          H       0.14130   0.22969   0.58603   0.11264
H          H       0.09577   0.14417   0.53396   0.11479
H          H       0.55629   0.37984   0.67112   0.10198
H          H       0.55807   0.57178   0.97689   0.11059
H          H       0.50087   0.58739   0.03914   0.10297
H          H       0.49797   0.39247   0.72845   0.11144
H          H       0.16218   0.96851   0.75905   0.10699
H          H       0.07301   0.11057   0.76376   0.10328
H          H      -0.00002   0.11945   0.67822   0.11083
H          H       0.98173   0.85477   0.93603   0.10712
H          H       0.04886   0.85285   0.50261   0.11226
H          H       0.89173   0.99702   0.93255   0.11001
H          H       0.87622   0.93917   0.66102   0.10533
H          H       0.83207   0.85374   0.59779   0.10438
H          H       0.90701   0.74214   0.58901   0.11271
H          H       0.95195   0.82814   0.64698   0.11254
H          H       0.70078   0.57771   0.76525   0.11091
H          H       0.63850   0.58750   0.79130   0.11857
H          H       0.72840   0.40507   0.63692   0.10776
H          H       0.72814   0.36699   0.93835   0.11368
H          H       0.76419   0.27413   0.96873   0.12012
H          H       0.83410   0.46587   0.98416   0.11101
H          H       0.81669   0.50864   0.69484   0.11441
H          H       0.85628   0.60178   0.69173   0.12185
H          H       0.74084   0.57983   0.65423   0.11772
H          H       0.95585   0.16067   0.87375   0.10940
H          H       0.91837   0.25516   0.83342   0.10413
H          H       0.84667   0.14821   0.57947   0.11308
H          H       0.88461   0.05368   0.61734   0.09983
H          H       0.38396   0.55530   0.53458   0.10669
H          H       0.18641   0.59460   0.69431   0.10820
H          H       0.27956   0.29414   0.55347   0.11532
H          H       0.66584   0.41526   0.65719   0.10738
H          H       0.86191   0.37736   0.49027   0.10705
H          H       0.77584   0.67576   0.65686   0.11421
H          H       0.23664   0.22186   0.52526   0.06624
H          H       0.81409   0.74982   0.69126   0.06922
H          H       0.86811   0.30653   0.85824   0.06017
H          H       0.18657   0.66263   0.82684   0.05771
H          H       0.44809   0.54848   0.63489   0.05821
H          H       0.60204   0.42049   0.56207   0.05781
C          C       0.13269   0.86759   0.18438   0.07273
C          C       0.12419   0.80850   0.25768  -0.13388
C          C       0.14642   0.75631   0.28256  -0.12636
C          C       0.17765   0.76113   0.23420   0.05791
C          C       0.18618   0.82012   0.16071  -0.10088
C          C       0.16423   0.87206   0.13749  -0.13991
C          C       0.28059   0.54164   0.23282   0.18499
C          C       0.27749   0.43126   0.27048   0.16065
C          C       0.33676   0.47907   0.25271   0.17116
C          C       0.36429   0.42602   0.35589  -0.17804
C          C       0.39980   0.41955   0.34424  -0.13857
C          C       0.40984   0.46581   0.23180   0.18878
C          C       0.38178   0.51824   0.12615  -0.16379
C          C       0.34598   0.52444   0.13561  -0.17951
C          C       0.29998   0.59709   0.22953  -0.18490
C          C       0.28113   0.65062   0.21645  -0.14058
C          C       0.24258   0.65183   0.21069   0.18073
C          C       0.22268   0.59713   0.20828  -0.16429
C          C       0.24101   0.54385   0.21794  -0.19826
C          C       0.24228   0.42697   0.11979  -0.15540
C          C       0.22067   0.37515   0.12483  -0.14644
C          C       0.23402   0.32545   0.27888   0.19245
C          C       0.26906   0.33069   0.43075  -0.16112
C          C       0.29010   0.38360   0.42712  -0.15132
C          C       0.19955   0.70561   0.25736   0.06548
C          C       0.14305   0.07573   0.26707   0.08253
C          C       0.17529   0.06933   0.43641  -0.14187
C          C       0.19861   0.11846   0.47683  -0.12504
C          C       0.19080   0.17493   0.34729   0.04711
C          C       0.15898   0.18096   0.17625  -0.10794
C          C       0.13531   0.13252   0.13780  -0.13414
C          C       0.21536   0.22659   0.38644   0.07996
C          C       0.54493   0.42224   0.13890  -0.13242
C          C       0.56149   0.47320   0.06828   0.06577
C          C       0.54063   0.53628   0.53017  -0.10848
C          C       0.51355   0.54116   0.06750  -0.12988
C          C       0.49682   0.49020   0.13708   0.06565
C          C       0.51317   0.43047   0.17311  -0.10763
C          C       0.46278   0.49998   0.16745   0.06670
C          C       0.11734   0.02462   0.22026   0.01672
C          C       0.07544   0.02824   0.17841   0.03127
C          C       0.05064   0.98082   0.11852   0.00171
C          C       0.06842   0.92893   0.10833   0.03193
C          C       0.11129   0.92354   0.16706   0.02455
C          C       0.13429   0.97240   0.21627  -0.18401
C          C       0.05755   0.07622   0.20259  -0.13487
C          C       0.01683   0.08005   0.15716  -0.12872
C          C       0.99017   0.03690   0.08070   0.02997
C          C       0.00802   0.98508   0.07049   0.00451
C          C       0.98334   0.93731   0.01281   0.02702
C          C       0.99540   0.89428   0.47669  -0.13402
C          C       0.04188   0.88504   0.03518  -0.12967
C          C       0.94722   0.04256   0.02098   0.02765
C          C       0.91896  -0.00090   0.46317  -0.18676
C          C       0.93562   0.94661   0.45854   0.01469
C          C       0.90950   0.89617   0.41416   0.08408
C          C       0.87101   0.90640   0.26399  -0.14399
C          C       0.84632   0.85811   0.23031  -0.12577
C          C       0.85907   0.79842   0.34734   0.04644
C          C       0.89972   0.78489   0.02625  -0.10419
C          C       0.92470   0.83245   0.05949  -0.13549
C          C       0.77271   0.42980   0.45305   0.18742
C          C       0.77483   0.54007   0.41963   0.16081
C          C       0.71588   0.49078   0.43434   0.17492
C          C       0.68856   0.54420   0.33511  -0.17491
C          C       0.65346   0.55063   0.35006  -0.13840
C          C       0.64332   0.50360   0.46055   0.18838
C          C       0.67420   0.44272   0.05933  -0.16898
C          C       0.71001   0.43709   0.04919  -0.17823
C          C       0.75407   0.37376   0.45700  -0.18217
C          C       0.77371   0.32071   0.47206  -0.13965
C          C       0.81227   0.32046   0.47781   0.17968
C          C       0.83135   0.37586   0.47861  -0.16658
C          C       0.81240   0.42872   0.46832  -0.19224
C          C       0.81302   0.53970   0.08317  -0.15418
C          C       0.83402   0.59227   0.08379  -0.14503
C          C       0.81883   0.64547   0.41683   0.19413
C          C       0.78530   0.63941   0.26144  -0.16220
C          C       0.76397   0.58679   0.26264  -0.15094
C          C       0.83225   0.74854   0.31816   0.07239
C          C       0.59471   0.46311   0.03329   0.06484
C          C       0.92130   0.10282   0.50295   0.07119
C          C       0.92944   0.16173   0.42660  -0.13355
C          C       0.90792   0.21425   0.40437  -0.12390
C          C       0.87767   0.21004   0.45829   0.05566
C          C       0.87373   0.14872   0.02960  -0.10221
C          C       0.89490   0.09583   0.05278  -0.13916
C          C       0.85639   0.26607   0.43638   0.06454
C          C       0.12737   0.86883   0.68165   0.07221
C          C       0.12001   0.81014   0.76263  -0.13364
C          C       0.14207   0.75767   0.78788  -0.12827
C          C       0.17188   0.76179   0.73158   0.05666
C          C       0.17940   0.82046   0.65085  -0.09965
C          C       0.15770   0.87280   0.62772  -0.13973
C          C       0.27550   0.54191   0.73077   0.18540
C          C       0.27268   0.43203   0.75823   0.15893
C          C       0.33212   0.48041   0.74927   0.17429
C          C       0.35903   0.42657   0.84992  -0.17438
C          C       0.39475   0.41984   0.83982  -0.13816
C          C       0.40565   0.46663   0.73144   0.18864
C          C       0.37831   0.52001   0.62968  -0.16579
C          C       0.34232   0.52652   0.63745  -0.17925
C          C       0.29445   0.59777   0.72809  -0.18143
C          C       0.27495   0.65082   0.71393  -0.14088
C          C       0.23641   0.65118   0.70854   0.18061
C          C       0.21706   0.59599   0.70676  -0.16658
C          C       0.23586   0.54312   0.71607  -0.19641
C          C       0.23981   0.42698   0.60160  -0.15246
C          C       0.21760   0.37570   0.60131  -0.14751
C          C       0.22865   0.32711   0.75609   0.19090
C          C       0.26156   0.33278   0.91349  -0.16600
C          C       0.28302   0.38529   0.91454  -0.15021
C          C       0.19341   0.70573   0.75507   0.06777
C          C       0.13921   0.07584   0.76348   0.08168
C          C       0.17850   0.06533   0.90923  -0.13972
C          C       0.20362   0.11338   0.93935  -0.12500
C          C       0.19028   0.17316   0.82315   0.04634
C          C       0.15091   0.18365   0.67709  -0.10266
C          C       0.12585   0.13607   0.64866  -0.13298
C          C       0.21691   0.22330   0.84829   0.06883
C          C       0.54255   0.42553   0.64049  -0.12944
C          C       0.55826   0.47729   0.56835   0.06593
C          C       0.54535   0.53294   0.03339  -0.10520
C          C       0.50828   0.54293   0.56227  -0.12829
C          C       0.49245   0.49116   0.63393   0.06314
C          C       0.51021   0.43216   0.67277  -0.10599
C          C       0.45832   0.50024   0.66443   0.06922
C          C       0.11290   0.02554   0.72097   0.01648
C          C       0.07085   0.03019   0.67756   0.03105
C          C       0.04558   0.98363   0.61494   0.00426
C          C       0.06313   0.93160   0.60414   0.03210
C          C       0.10611   0.92490   0.66559   0.03094
C          C       0.12954   0.97277   0.71780  -0.18598
C          C       0.05311   0.07819   0.70219  -0.13781
C          C       0.01228   0.08320   0.65406  -0.12840
C          C       0.98525   0.04079   0.57573   0.03243
C          C       0.00277   0.98894   0.56407   0.00415
C          C       0.97762   0.94228   0.50127   0.02999
C          C       0.00128   0.88867   0.99126  -0.13588
C          C       0.03627   0.88909   0.52583  -0.13050
C          C       0.94230   0.04703   0.51624   0.02933
C          C       0.92435   0.99352   0.97310  -0.18515
C          C       0.94156   0.94086   0.97204   0.01851
C          C       0.91596   0.88939   0.92961   0.08320
C          C       0.88227   0.89616   0.76362  -0.14027
C          C       0.85758   0.84794   0.72846  -0.12204
C          C       0.86556   0.79194   0.86008   0.04437
C          C       0.89771   0.78815   0.49765  -0.10398
C          C       0.92242   0.83595   0.52942  -0.13106
C          C       0.77776   0.42533   0.95755   0.18466
C          C       0.77892   0.53543   0.92919   0.15961
C          C       0.72036   0.48482   0.94126   0.17557
C          C       0.69383   0.53931   0.84834  -0.17579
C          C       0.65863   0.54520   0.86253  -0.13780
C          C       0.64748   0.49688   0.96605   0.18882
C          C       0.67097   0.45054   0.56051  -0.16578
C          C       0.70650   0.44453   0.54907  -0.17855
C          C       0.75906   0.36933   0.95542  -0.18175
C          C       0.77900   0.31688   0.96879  -0.14030
C          C       0.81804   0.31721   0.97876   0.18366
C          C       0.83720   0.37247   0.98489  -0.16622
C          C       0.81781   0.42472   0.97614  -0.19835
C          C       0.80829   0.54547   0.57417  -0.15230
C          C       0.83034   0.59694   0.57234  -0.14805
C          C       0.82098   0.64278   0.93190   0.19539
C          C       0.78639   0.63823   0.77763  -0.16309
C          C       0.76617   0.58453   0.77557  -0.14862
C          C       0.83889   0.74209   0.82644   0.07457
C          C       0.59189   0.46861   0.53446   0.06821
C          C       0.92576   0.09892   0.00206   0.07195
C          C       0.93385   0.15741   0.92284  -0.13253
C          C       0.91238   0.21040   0.89810  -0.12762
C          C       0.88224   0.20713   0.95212   0.05612
C          C       0.86933   0.15122   0.53397  -0.09982
C          C       0.89057   0.09882   0.55475  -0.14059
C          C       0.86110   0.26346   0.92964   0.06787
N          N       0.22569   0.70711   0.19950  -0.29666
N          N       0.44498   0.45460   0.22128  -0.29046
N          N       0.21111   0.27440   0.25930  -0.30395
N          N       0.82942   0.26528   0.48960  -0.29718
N          N       0.60867   0.51436   0.47535  -0.29106
N          N       0.84322   0.69509   0.43332  -0.30166
N          N       0.29964   0.48512   0.25961  -0.13634
N          N       0.75292   0.48566   0.42620  -0.13830
N          N       0.21928   0.70644   0.69630  -0.29344
N          N       0.44091   0.45503   0.72169  -0.29268
N          N       0.20420   0.27771   0.73855  -0.29595
N          N       0.83553   0.26251   0.98988  -0.29242
N          N       0.61306   0.50811   0.98165  -0.28981
N          N       0.84495   0.69279   0.95272  -0.30576
N          N       0.29479   0.48617   0.75435  -0.13718
N          N       0.75758   0.48049   0.93374  -0.13560

