data_crystal

_audit_creation_method 'AiiDA-DDEC plugin'

_cell_length_a        27.06869
_cell_length_b        27.00043
_cell_length_c        73.76184

_cell_angle_alpha     90.30881
_cell_angle_beta     89.95117
_cell_angle_gamma     90.53362

_symmetry_space_group_name_Hall 'P 1'
_symmetry_space_group_name_H-M  'P 1'

loop_
_symmetry_equiv_pos_as_xyz
 'x,y,z'

loop_
_atom_site_label
_atom_site_type_symbol
_atom_site_fract_x
_atom_site_fract_y
_atom_site_fract_z
_atom_site_charge
H          H       0.23347   0.01719   0.92850   0.11506
H          H       0.28708   0.53938   0.42432   0.11351
H          H       0.04880   0.70954   0.17244   0.11326
H          H       0.53617   0.77505   0.67472   0.11416
H          H       0.79079   0.45403   0.32680   0.11261
H          H       0.72264   0.04020   0.82552   0.11309
H          H       0.03798   0.78282   0.07613   0.11318
H          H       0.54660   0.71332   0.57573   0.11462
H          H       0.72325   0.46477   0.42436   0.11304
H          H       0.78863   0.04343   0.92308   0.11419
H          H       0.45838   0.21304   0.67308   0.11336
H          H       0.95143   0.29445   0.17250   0.11292
H          H       0.28425   0.05187   0.82631   0.11458
H          H       0.21184   0.55181   0.32867   0.11377
H          H       0.45746   0.28649   0.57712   0.11340
H          H       0.95309   0.22214   0.07594   0.11396
H          H       0.54222   0.67943   0.49427   0.10688
H          H       0.03212   0.81847   0.99673   0.10732
H          H       0.31900   0.03334   0.74406   0.10641
H          H       0.18562   0.47487   0.24493   0.10724
H          H       0.46547   0.81426   0.75509   0.10872
H          H       0.03118   0.68669   0.25510   0.10563
H          H       0.68980   0.47044   0.50345   0.10657
H          H       0.81258   0.02521   0.00526   0.10834
H          H       0.02157   0.18461   0.99483   0.10724
H          H       0.47170   0.31317   0.49512   0.10742
H          H       0.82105   0.53974   0.24459   0.10805
H          H       0.68524   0.96484   0.74422   0.10654
H          H       0.97257   0.31708   0.25530   0.10707
H          H       0.53142   0.18353   0.75542   0.10821
H          H       0.18041   0.97947   0.00673   0.10710
H          H       0.31884   0.52068   0.50439   0.10778
H          H       0.50856   0.73276   0.50166   0.12246
H          H       0.96616   0.81119   0.99560   0.10685
H          H       0.26555   0.00125   0.75257   0.12181
H          H       0.23729   0.50920   0.25385   0.12164
H          H       0.49806   0.76164   0.74633   0.12063
H          H       0.99741   0.73957   0.24754   0.12200
H          H       0.73951   0.50875   0.49536   0.12099
H          H       0.76014   0.99049   0.99718   0.12191
H          H       0.98735   0.23641   0.00330   0.12115
H          H       0.50466   0.25989   0.50278   0.12137
H          H       0.76564   0.50997   0.25248   0.12225
H          H       0.73740  -0.00051   0.75257   0.12138
H          H       0.00972   0.26686   0.24731   0.12108
H          H       0.49800   0.23523   0.74669   0.12235
H          H       0.23088   0.01666   0.99860   0.12054
H          H       0.26710   0.48464   0.49642   0.12197
H          H       0.47595   0.67983   0.49277   0.10794
H          H       0.00309   0.76295   0.00496   0.12095
H          H       0.31796   0.96687   0.74482   0.10719
H          H       0.18362   0.54130   0.24610   0.10604
H          H       0.53186   0.81444   0.75459   0.10755
H          H       0.96485   0.68647   0.25610   0.10773
H          H       0.68462   0.53672   0.50425   0.10768
H          H       0.81298   0.95866   0.00583   0.10846
H          H       0.95521   0.18201   0.99541   0.10614
H          H       0.53804   0.31249   0.49417   0.10729
H          H       0.81581   0.47341   0.24409   0.10622
H          H       0.68392   0.03136   0.74449   0.10846
H          H       0.03881   0.32202   0.25599   0.10809
H          H       0.46521   0.18085   0.75400   0.10762
H          H       0.17514   0.04566   0.00609   0.10808
H          H       0.32061   0.45418   0.50517   0.10681
H          H       0.58958   0.77472   0.59365   0.12942
H          H       0.06604   0.70877   0.08921   0.12941
H          H       0.22412   0.09606   0.84425   0.13161
H          H       0.27958   0.58737   0.34410   0.13103
H          H       0.57214   0.70637   0.65858   0.12983
H          H       0.09049   0.77338   0.15662   0.13016
H          H       0.79555   0.43494   0.41032   0.12972
H          H       0.72663   0.08551   0.90714   0.12957
H          H       0.92430   0.29495   0.08962   0.12960
H          H       0.42134   0.21778   0.59142   0.12929
H          H       0.72742   0.41210   0.34286   0.12890
H          H       0.79497   0.06918   0.83976   0.12962
H          H       0.91357   0.22666   0.15771   0.12976
H          H       0.42679   0.28408   0.65954   0.12985
H          H       0.30847   0.04679   0.91456   0.13214
H          H       0.21483   0.57156   0.41145   0.13048
H          H       0.56824   0.79253   0.61560   0.13511
H          H       0.02271   0.67876   0.10376   0.13629
H          H       0.20320   0.07338   0.86558   0.13598
H          H       0.31834   0.54017   0.35276   0.13621
H          H       0.51672   0.67365   0.65355   0.13262
H          H       0.07887   0.78078   0.13302   0.13265
H          H       0.80325   0.44047   0.38641   0.13482
H          H       0.72134   0.07632   0.88328   0.13342
H          H       0.97033   0.32785   0.10217   0.13698
H          H       0.42233   0.21964   0.61552   0.13210
H          H       0.68463   0.45725   0.35042   0.13443
H          H       0.82579   0.01930   0.85044   0.13493
H          H       0.91418   0.23079   0.13365   0.13261
H          H       0.47152   0.31908   0.64724   0.13714
H          H       0.32669   0.98756   0.90685   0.12979
H          H       0.21699   0.57647   0.38741   0.13309
H          H       0.54030   0.81704   0.59604   0.13385
H          H       0.07288   0.71167   0.11317   0.13328
H          H       0.18123   0.04631   0.84529   0.12994
H          H       0.28458   0.57741   0.36788   0.13371
H          H       0.55572   0.69263   0.63568   0.13404
H          H       0.04623   0.81668   0.14889   0.13600
H          H       0.82659   0.48705   0.40092   0.13533
H          H       0.68419   0.04124   0.89809   0.13507
H          H       0.92348   0.29531   0.11373   0.13266
H          H       0.46346   0.18081   0.60385   0.13469
H          H       0.71925   0.42432   0.36644   0.13512
H          H       0.79870   0.06579   0.86385   0.13455
H          H       0.95402   0.18929   0.14448   0.13500
H          H       0.42654   0.28444   0.63542   0.13285
H          H       0.32099   0.03618   0.89113   0.13618
H          H       0.18085   0.52952   0.39740   0.13602
H          H       0.10101   0.00819   0.00587   0.12815
H          H       0.39787   0.48977   0.50484   0.12930
H          H      -0.00105   0.60910   0.25547   0.12879
H          H       0.49862   0.89307   0.75500   0.12934
H          H       0.89626   0.50359   0.24460   0.12950
H          H       0.60652   0.99815   0.74450   0.12868
H          H       0.99646   0.89325   0.99568   0.12982
H          H       0.50473   0.60141   0.49381   0.12816
H          H       0.60946   0.49826   0.50425   0.12869
H          H       0.89082   0.99516   0.00558   0.12973
H          H       0.49964   0.10519   0.75478   0.12859
H          H       0.00293   0.39778   0.25556   0.12924
H          H       0.39601   0.00206   0.74467   0.12799
H          H       0.10721   0.50521   0.24537   0.12954
H          H       0.50531   0.39018   0.49455   0.12900
H          H       0.99089   0.10570   0.99514   0.12895
H          H       0.04784   0.99394   0.94115   0.12379
H          H       0.45295   0.49278   0.44007   0.12483
H          H       0.99397   0.55240   0.19085   0.12738
H          H       0.49894   0.94820   0.69036   0.12334
H          H       0.94986   0.50571   0.30950   0.12534
H          H       0.55187   0.99862   0.80925   0.12438
H          H       0.99270   0.95221   0.06009   0.12483
H          H       0.49900   0.54869   0.55870   0.12698
H          H       0.55184   0.50193   0.43985   0.12649
H          H       0.94678   0.99078   0.94096   0.12523
H          H       0.50663   0.04773   0.69028   0.12456
H          H       0.00299   0.45219   0.19084   0.12702
H          H       0.45075  -0.00057   0.80939   0.12567
H          H       0.05003   0.50008   0.30981   0.12809
H          H       0.50717   0.44795   0.55908   0.12507
H          H       0.99813   0.05140   0.05981   0.12772
H          H       0.18485  -0.00019   0.94899   0.07291
H          H       0.31583   0.48861   0.44722   0.07315
H          H       0.99702   0.68969   0.19736   0.07733
H          H       0.49288   0.81097   0.69704   0.07491
H          H       0.81349   0.50424   0.30249   0.07711
H          H       0.68858   0.99369   0.80230   0.07571
H          H       0.99018   0.81437   0.05379   0.07610
H          H       0.50072   0.68556   0.55146   0.07669
H          H       0.68863   0.51103   0.44610   0.07632
H          H       0.81009   0.99200   0.94740   0.07395
H          H       0.50815   0.18563   0.69702   0.07425
H          H       0.00294   0.31547   0.19722   0.07633
H          H       0.31336   0.00298   0.80211   0.07388
H          H       0.18711   0.50353   0.30369   0.07651
H          H       0.50944   0.31037   0.55258   0.07369
H          H       0.99742   0.18883   0.05273   0.07639
H          H       0.11088   0.97388   0.89482   0.11815
H          H       0.37384   0.42881   0.39732   0.11910
H          H       0.91993   0.63709   0.15058   0.11940
H          H       0.44729   0.87961   0.64597   0.12155
H          H       0.86886   0.57790   0.35023   0.12169
H          H       0.62058   0.94223   0.85230   0.11855
H          H       0.93859   0.88033   0.10399   0.12018
H          H       0.43006   0.62702   0.59983   0.11874
H          H       0.61913   0.55358   0.39541   0.11917
H          H       0.86647   0.92138   0.89930   0.11776
H          H       0.57320   0.12692   0.64844   0.11847
H          H       0.07674   0.37101   0.14993   0.12164
H          H       0.36972   0.93781   0.85127   0.11843
H          H       0.12851   0.43022   0.35083   0.11938
H          H       0.57926   0.36748   0.60045   0.11998
H          H       0.05685   0.12689   0.10221   0.11926
H          H       0.16697   0.97362   0.86798   0.11127
H          H       0.31479   0.42965   0.37127   0.11092
H          H       0.92118   0.69616   0.12455   0.11154
H          H       0.44415   0.82159   0.61948   0.11168
H          H       0.80964   0.57739   0.37634   0.11043
H          H       0.67814   0.93777   0.87873   0.11175
H          H       0.93659   0.82182   0.13021   0.11186
H          H       0.42989   0.68470   0.62639   0.11087
H          H       0.67783   0.55742   0.36914   0.11158
H          H       0.80819   0.92212   0.87301   0.11002
H          H       0.57519   0.18570   0.62237   0.11033
H          H       0.07501   0.31313   0.12334   0.11149
H          H       0.31111   0.93707   0.87732   0.11160
H          H       0.18816   0.42607   0.37666   0.11044
H          H       0.57918   0.30893   0.62663   0.11064
H          H       0.06171   0.18662   0.12821   0.11117
C          C       0.08975   0.00499   0.99180  -0.27747
C          C       0.40959   0.49061   0.49077  -0.27863
C          C      -0.00109   0.59721   0.24140  -0.27979
C          C       0.49886   0.90484   0.74094  -0.27871
C          C       0.90757   0.50373   0.25872  -0.28050
C          C       0.59489   0.99833   0.75859  -0.27887
C          C       0.99634   0.90591   0.00967  -0.27942
C          C       0.50372   0.59015   0.50792  -0.27902
C          C       0.59715   0.49943   0.49026  -0.27776
C          C       0.90259   0.99467   0.99151  -0.27714
C          C       0.50151   0.09302   0.74076  -0.27934
C          C       0.00300   0.40937   0.24149  -0.27961
C          C       0.40755   0.00144   0.75875  -0.27944
C          C       0.09507   0.50444   0.25939  -0.28000
C          C       0.50577   0.40236   0.50860  -0.27948
C          C       0.99240   0.09408   0.00919  -0.27818
C          C       0.12461   0.00513   0.97767   0.20503
C          C       0.37521   0.48839   0.47651   0.20583
C          C       0.99655   0.63147   0.22716   0.20669
C          C       0.49762   0.87022   0.72662   0.20777
C          C       0.87278   0.50477   0.27284   0.20756
C          C       0.62950   0.99768   0.77278   0.20694
C          C       0.99507   0.87222   0.02412   0.20859
C          C       0.50310   0.62525   0.52204   0.21015
C          C       0.63097   0.50272   0.47585   0.20710
C          C       0.86832   0.99179   0.97725   0.20533
C          C       0.50326   0.12713   0.72644   0.20570
C          C       0.00483   0.37470   0.22724   0.20967
C          C       0.37298   0.00170   0.77296   0.20725
C          C       0.12914   0.50384   0.27376   0.20724
C          C       0.50728   0.36835   0.52293   0.20696
C          C       0.99243   0.12881   0.02346   0.20537
C          C       0.10941   0.00034   0.95922  -0.04923
C          C       0.39101   0.48910   0.45810  -0.05252
C          C       0.99469   0.61497   0.20881  -0.05421
C          C       0.49696   0.88609   0.70823  -0.05256
C          C       0.88846   0.50607   0.29124  -0.05432
C          C       0.61358   0.99715   0.79117  -0.05342
C          C       0.99349   0.88909   0.04243  -0.05211
C          C       0.50030   0.61001   0.54047  -0.05512
C          C       0.61429   0.50399   0.45758  -0.05360
C          C       0.88468   0.99029   0.95891  -0.05393
C          C       0.50610   0.11061   0.70810  -0.05034
C          C       0.00516   0.39048   0.20886  -0.05550
C          C       0.38872   0.00070   0.79139  -0.05433
C          C       0.11261   0.50153   0.29208  -0.05300
C          C       0.50884   0.38513   0.54127  -0.05479
C          C       0.99532   0.11326   0.04183  -0.05321
C          C       0.05851   0.99709   0.95533  -0.13508
C          C       0.44180   0.49230   0.45425  -0.13321
C          C       0.99594   0.56387   0.20500  -0.13595
C          C       0.49912   0.93708   0.70452  -0.13399
C          C       0.93921   0.50494   0.29527  -0.13379
C          C       0.56268   0.99851   0.79504  -0.13459
C          C       0.99415   0.94029   0.04598  -0.13500
C          C       0.50059   0.55912   0.54447  -0.13556
C          C       0.56337   0.50116   0.45398  -0.13542
C          C       0.93563   0.99187   0.95513  -0.13716
C          C       0.50527   0.05943   0.70441  -0.13545
C          C       0.00292   0.44137   0.20503  -0.13494
C          C       0.43970   0.00008   0.79520  -0.13351
C          C       0.06156   0.50143   0.29568  -0.13587
C          C       0.50681   0.43630   0.54493  -0.13099
C          C       0.99626   0.06231   0.04565  -0.13617
C          C       0.02386   0.99764   0.96930  -0.00492
C          C       0.47589   0.49462   0.46832  -0.00660
C          C      -0.00071   0.52997   0.21906  -0.00298
C          C       0.50078   0.97141   0.71862  -0.00197
C          C       0.97371   0.50356   0.28133  -0.00400
C          C       0.52828  -0.00080   0.78105  -0.00231
C          C       0.99578   0.97372   0.03173  -0.00271
C          C       0.50256   0.52426   0.53055  -0.00580
C          C       0.52984   0.49786   0.46818  -0.00209
C          C       0.96970   0.99507   0.96921   0.00052
C          C       0.50286   0.02561   0.71855  -0.00398
C          C       0.00134   0.47580   0.21909  -0.00579
C          C       0.47408  -0.00011   0.78113  -0.00467
C          C       0.02780   0.50289   0.28150  -0.00514
C          C       0.50461   0.47003   0.53076  -0.00440
C          C       0.99541   0.02787   0.03158  -0.00417
C          C       0.03996   0.00097   0.98746   0.05826
C          C       0.45953   0.49362   0.48648   0.06095
C          C       0.00041   0.54707   0.23716   0.06006
C          C       0.50002   0.95499   0.73676   0.05916
C          C       0.95742   0.50341   0.26317   0.05918
C          C       0.54488  -0.00113   0.76289   0.05799
C          C       0.99658   0.95628   0.01367   0.05865
C          C       0.50303   0.54021   0.51236   0.06071
C          C       0.54704   0.49746   0.48622   0.05811
C          C       0.95259   0.99660   0.98728   0.05684
C          C       0.50202   0.04276   0.73665   0.05950
C          C       0.00192   0.45938   0.23721   0.06016
C          C       0.45747   0.00020   0.76300   0.06100
C          C       0.04494   0.50382   0.26344   0.06012
C          C       0.50491   0.45260   0.51269   0.05913
C          C       0.99435   0.04404   0.01343   0.05856
C          C       0.14612   0.99845   0.94466   0.08270
C          C       0.35492   0.48670   0.44339   0.08715
C          C       0.99153   0.65043   0.19396   0.08426
C          C       0.49375   0.85023   0.69334   0.08372
C          C       0.85262   0.50914   0.30598   0.08400
C          C       0.64931   0.99424   0.80599   0.08482
C          C       0.99048   0.85387   0.05736   0.08213
C          C       0.49652   0.64642   0.55512   0.08364
C          C       0.64932   0.50830   0.44263   0.08231
C          C       0.84925   0.98739   0.94400   0.08806
C          C       0.50974   0.14628   0.69330   0.08448
C          C       0.00799   0.35479   0.19394   0.08507
C          C       0.35223  -0.00053   0.80605   0.08559
C          C       0.14787   0.49884   0.30705   0.08304
C          C       0.51244   0.34978   0.55615   0.08384
C          C       0.99852   0.14964   0.05653   0.08298
C          C       0.14997   0.98261   0.89628  -0.16733
C          C       0.34172   0.45270   0.39747  -0.17616
C          C       0.94796   0.66604   0.14963  -0.17841
C          C       0.46523   0.84377   0.64645  -0.17525
C          C       0.83852   0.55129   0.35083  -0.17958
C          C       0.65579   0.96195   0.85224  -0.17448
C          C       0.95940   0.84608   0.10370  -0.17669
C          C       0.45481   0.65896   0.60035  -0.17610
C          C       0.65503   0.53592   0.39598  -0.17380
C          C       0.83640   0.94772   0.89870  -0.17505
C          C       0.54886   0.15870   0.64806  -0.17693
C          C       0.04929   0.34146   0.14897  -0.17956
C          C       0.33788   0.96205   0.85152  -0.17710
C          C       0.16009   0.45533   0.35164  -0.17747
C          C       0.55303   0.33680   0.60111  -0.17963
C          C       0.03578   0.16099   0.10219  -0.17463
C          C       0.18148   0.98268   0.88136  -0.13307
C          C       0.30860   0.45334   0.38303  -0.13759
C          C       0.94886   0.69908   0.13521  -0.13652
C          C       0.46383   0.81133   0.63173  -0.13615
C          C       0.80560   0.55068   0.36532  -0.13336
C          C       0.68807   0.95959   0.86689  -0.13754
C          C       0.95853   0.81343   0.11824  -0.13735
C          C       0.45490   0.69135   0.61509  -0.13333
C          C       0.68778   0.53787   0.38146  -0.13681
C          C       0.80407   0.94871   0.88404  -0.13702
C          C       0.54966   0.19156   0.63357  -0.13718
C          C       0.04801   0.30913   0.13419  -0.13684
C          C       0.30519   0.96214   0.86605  -0.13129
C          C       0.19338   0.45336   0.36601  -0.13601
C          C       0.55265   0.30414   0.61567  -0.13703
C          C       0.03835   0.19446   0.11659  -0.13748
C          C       0.23207   0.99409   0.88306   0.00427
C          C       0.26752   0.48475   0.38313   0.00404
C          C       0.98540   0.73615   0.13389   0.00214
C          C       0.48775   0.76538   0.63219   0.00441
C          C       0.76710   0.51559   0.36621   0.00218
C          C       0.73327   0.98552   0.86687   0.00462
C          C       0.98612   0.76968   0.11794   0.00477
C          C       0.48719   0.73240   0.61590   0.00144
C          C       0.73377   0.51440   0.38221   0.00467
C          C       0.76620   0.98382   0.88303   0.00300
C          C       0.51756   0.23208   0.63288   0.00436
C          C       0.01200   0.27151   0.13283   0.00298
C          C       0.26439   0.99411   0.86672  -0.00173
C          C       0.23362   0.48643   0.36723   0.00454
C          C       0.51801   0.26521   0.61678   0.00398
C          C       0.01036   0.23800   0.11672   0.00524
C          C       0.25086   0.00611   0.90051   0.12817
C          C       0.25943   0.51583   0.39830   0.12721
C          C       0.02179   0.74027   0.14752   0.12935
C          C       0.51395   0.75212   0.64797   0.12662
C          C       0.76135   0.48042   0.35212   0.12765
C          C       0.74602   0.01473   0.85169   0.12667
C          C       0.01510   0.75837   0.10256   0.12717
C          C       0.52031   0.74069   0.60138   0.12715
C          C       0.74704   0.48796   0.39791   0.12565
C          C       0.76061   0.01843   0.89730   0.12656
C          C       0.48463   0.24028   0.64744   0.12779
C          C       0.97685   0.26597   0.14686   0.12774
C          C       0.25643   0.02642   0.85198   0.12842
C          C       0.24035   0.52240   0.35358   0.12833
C          C       0.48339   0.25853   0.60263   0.12729
C          C       0.97927   0.24815   0.10184   0.12668
C          C       0.21861   0.00629   0.91536  -0.24830
C          C       0.29254   0.51449   0.41285  -0.25250
C          C       0.02020   0.70740   0.16211  -0.25605
C          C       0.51472   0.78472   0.66279  -0.25280
C          C       0.79406   0.48189   0.33746  -0.25523
C          C       0.71356   0.01649   0.83696  -0.25167
C          C       0.01503   0.79093   0.08788  -0.25286
C          C       0.51979   0.70804   0.58657  -0.25521
C          C       0.71402   0.48649   0.41247  -0.25234
C          C       0.79233   0.01627   0.91222  -0.25437
C          C       0.48458   0.20748   0.66207  -0.25359
C          C       0.97903   0.29795   0.16183  -0.25480
C          C       0.28936   0.02561   0.83728  -0.25304
C          C       0.20730   0.52349   0.33901  -0.25476
C          C       0.48473   0.29086   0.58786  -0.25497
C          C       0.97771   0.21481   0.08725  -0.25331
C          C       0.16800   0.99438   0.91370   0.20596
C          C       0.33378   0.48301   0.41274   0.20774
C          C       0.98346   0.67031   0.16347   0.20917
C          C       0.49012   0.83040   0.66242   0.20879
C          C       0.83258   0.51717   0.33652   0.20880
C          C       0.66860   0.98983   0.83685   0.20835
C          C       0.98719   0.83478   0.08813   0.20797
C          C       0.48717   0.66726   0.58571   0.20902
C          C       0.66828   0.51083   0.41187   0.20794
C          C       0.83025   0.98105   0.91324   0.20777
C          C       0.51639   0.16652   0.66267   0.20866
C          C       0.01501   0.33576   0.16316   0.20910
C          C       0.33016   0.99368   0.83669   0.21010
C          C       0.16733   0.48987   0.33766   0.20970
C          C       0.51924   0.33014   0.58681   0.21048
C          C       0.00581   0.17114   0.08713   0.20783
C          C       0.50805   0.69224   0.50078  -0.18338
C          C      -0.00064   0.80309   0.00359  -0.18187
C          C       0.30593   0.00091   0.75171  -0.18114
C          C       0.19695   0.50773   0.25283  -0.18107
C          C       0.49819   0.80211   0.74748  -0.18398
C          C       0.99729   0.69909   0.24835  -0.18035
C          C       0.69930   0.50519   0.49651  -0.18152
C          C       0.80049   0.99118   0.99823  -0.18428
C          C       0.98847   0.19595   0.00239  -0.18144
C          C       0.50537   0.30037   0.50190  -0.18200
C          C       0.80587   0.50715   0.25160  -0.18274
C          C       0.69702   0.99834   0.75164  -0.18337
C          C       0.00706   0.30723   0.24832  -0.18276
C          C       0.49910   0.19478   0.74747  -0.18546
C          C       0.19060   0.01309   0.99920  -0.18167
C          C       0.30744   0.48624   0.49748  -0.18356
C          C       0.55669   0.78337   0.60172  -0.42267
C          C       0.04587   0.71207   0.10205  -0.42434
C          C       0.21416   0.06257   0.85182  -0.42273
C          C       0.28278   0.55895   0.35458  -0.42685
C          C       0.54131   0.70378   0.64898  -0.42203
C          C       0.06162   0.77964   0.14650  -0.42430
C          C       0.79553   0.46101   0.39897  -0.42389
C          C       0.72128   0.05758   0.89646  -0.42214
C          C       0.94764   0.29388   0.10175  -0.42457
C          C       0.44557   0.21716   0.60332  -0.42186
C          C       0.72122   0.44132   0.35296  -0.42297
C          C       0.79376   0.04397   0.85136  -0.42358
C          C       0.93748   0.22618   0.14572  -0.42265
C          C       0.45042   0.28409   0.64746  -0.42555
C          C       0.30452   0.02010   0.90338  -0.42464
C          C       0.21583   0.55024   0.39876  -0.42451
C          C       0.99593  -0.00025   0.00045   0.01824
C          C       0.50364   0.49577   0.49944   0.01555
C          C       0.00147   0.50349   0.25025   0.01611
C          C       0.50104  -0.00076   0.74983   0.01566
N          N       0.48733   0.63249   0.57155  -0.29268
N          N       0.98733   0.86916   0.07397  -0.29159
N          N       0.36539   0.99307   0.82273  -0.29257
N          N       0.13302   0.49007   0.32342  -0.29131
N          N       0.49089   0.86488   0.67669  -0.29409
N          N       0.98213   0.63580   0.17759  -0.29092
N          N       0.63391   0.50952   0.42604  -0.29244
N          N       0.86405   0.97934   0.92758  -0.29159
N          N       0.00415   0.13574   0.07316  -0.29286
N          N       0.51978   0.36460   0.57265  -0.28746
N          N       0.86707   0.51819   0.32238  -0.29139
N          N       0.63442   0.99105   0.82262  -0.29281
N          N       0.01672   0.36966   0.17759  -0.28987
N          N       0.51588   0.13176   0.67672  -0.29053
N          N       0.13290   0.99494   0.92781  -0.30352
N          N       0.36887   0.48188   0.42670  -0.29286
O          O       0.50480   0.67537   0.51916  -0.16782
O          O       0.99507   0.82182   0.02176  -0.16894
O          O       0.32287   0.00251   0.77013  -0.16783
O          O       0.17939   0.50497   0.27116  -0.16912
O          O       0.49732   0.81991   0.72918  -0.16885
O          O       0.99510   0.68179   0.22992  -0.16816
O          O       0.68120   0.50498   0.47823  -0.16960
O          O       0.81811   0.98999   0.97988  -0.16744
O          O       0.99007   0.17902   0.02079  -0.16842
O          O       0.50754   0.31796   0.52028  -0.16827
O          O       0.82269   0.50518   0.27002  -0.16635
O          O       0.67969   0.99747   0.77003  -0.16764
O          O       0.00740   0.32458   0.22995  -0.16818
O          O       0.50253   0.17749   0.72908  -0.16592
O          O       0.17452   0.00991   0.98069  -0.17002
O          O       0.32510   0.48506   0.47914  -0.16618

