data_crystal

_audit_creation_method 'AiiDA-DDEC plugin'

_cell_length_a        27.31374
_cell_length_b        27.11229
_cell_length_c        73.78583

_cell_angle_alpha     89.95225
_cell_angle_beta     90.04746
_cell_angle_gamma     90.90496

_symmetry_space_group_name_Hall 'P 1'
_symmetry_space_group_name_H-M  'P 1'

loop_
_symmetry_equiv_pos_as_xyz
 'x,y,z'

loop_
_atom_site_label
_atom_site_type_symbol
_atom_site_fract_x
_atom_site_fract_y
_atom_site_fract_z
_atom_site_charge
H          H       0.28420   0.97163   0.90161   0.10683
H          H       0.21316   0.46398   0.40064   0.10838
H          H       0.96919   0.78680   0.15164   0.10870
H          H       0.53194   0.71347   0.65074   0.10639
H          H       0.70938   0.49655   0.34711   0.10324
H          H       0.78717   0.97307   0.84839   0.10874
H          H       0.97275   0.71561   0.09853   0.10694
H          H       0.52313   0.79017   0.59734   0.10810
H          H       0.78795   0.47722   0.40255   0.10631
H          H       0.71334   0.96326   0.90149   0.10661
H          H       0.52709   0.28981   0.65275   0.10676
H          H       0.96702   0.21380   0.15048   0.10911
H          H       0.21294   0.97529   0.84811   0.10941
H          H       0.28737   0.47558   0.34726   0.10616
H          H       0.54000   0.21644   0.59926   0.10857
H          H       0.97621   0.29200   0.09731   0.10619
H          H       0.53591   0.67961   0.49333   0.10808
H          H       0.03016   0.81409   0.99519   0.10729
H          H       0.31994   0.03893   0.74532   0.10740
H          H       0.18188   0.47824   0.24392   0.10835
H          H       0.45768   0.81658   0.75483   0.10743
H          H       0.02943   0.68431   0.25398   0.10799
H          H       0.67920   0.46812   0.50578   0.10789
H          H       0.81951   0.02882   0.00620   0.10803
H          H       0.04400   0.18092   0.99304   0.10759
H          H       0.46140   0.31536   0.49585   0.10818
H          H       0.81708   0.52329   0.24410   0.10747
H          H       0.67946   0.96331   0.74416   0.10771
H          H       0.97270   0.31580   0.25565   0.10791
H          H       0.52199   0.18382   0.75625   0.10789
H          H       0.18414   0.97523   0.00438   0.10727
H          H       0.31444   0.52239   0.50433   0.10743
H          H       0.50684   0.73392   0.50164   0.12221
H          H       0.96511   0.82115   0.99711   0.10834
H          H       0.26600   0.00776   0.75360   0.12204
H          H       0.23324   0.51368   0.25214   0.12172
H          H       0.48867   0.76274   0.74705   0.12145
H          H       0.99431   0.73544   0.24619   0.12162
H          H       0.73219   0.50101   0.49762   0.12127
H          H       0.76747   0.99347   0.99849   0.12090
H          H       0.01496   0.23627   0.00045   0.12158
H          H       0.49425   0.26256   0.50354   0.12243
H          H       0.76656   0.48726   0.25267   0.12082
H          H       0.73319   0.99478   0.75251   0.12124
H          H       0.00622   0.26418   0.24733   0.12192
H          H       0.48636   0.23325   0.74737   0.12140
H          H       0.23481   0.01081   0.99576   0.12163
H          H       0.26455   0.48443   0.49636   0.12171
H          H       0.47021   0.68255   0.49390   0.10840
H          H       0.99321   0.76580   0.00505   0.12156
H          H       0.31627   0.97271   0.74516   0.10762
H          H       0.17947   0.54442   0.24435   0.10801
H          H       0.52338   0.81437   0.75563   0.10718
H          H       0.96373   0.68189   0.25533   0.10815
H          H       0.68008   0.53443   0.50543   0.10872
H          H       0.82086   0.96257   0.00649   0.10707
H          H       0.97846   0.18529   0.99239   0.10806
H          H       0.52712   0.31508   0.49463   0.10814
H          H       0.82055   0.45717   0.24483   0.10719
H          H       0.68207   0.02958   0.74464   0.10889
H          H       0.03854   0.31799   0.25537   0.10844
H          H       0.45647   0.17768   0.75504   0.10743
H          H       0.18168   0.04140   0.00419   0.10686
H          H       0.31875   0.45629   0.50504   0.10719
H          H       0.10556   0.00467   0.00456   0.13210
H          H       0.39369   0.49421   0.50481   0.12849
H          H       0.99510   0.60486   0.25486   0.12886
H          H       0.49463   0.89282   0.75522   0.12854
H          H       0.89575   0.49529   0.24460   0.13197
H          H       0.60381   0.99579   0.74469   0.12893
H          H       0.00232   0.89553   0.99542   0.12979
H          H       0.50102   0.60307   0.49402   0.12922
H          H       0.60258   0.49991   0.50533   0.12873
H          H       0.89720   0.99714   0.00565   0.12938
H          H       0.49606   0.10306   0.75552   0.12873
H          H       0.00279   0.39445   0.25529   0.12948
H          H       0.39508   0.00156   0.74511   0.12983
H          H       0.10389   0.50555   0.24434   0.12962
H          H       0.49815   0.39280   0.49493   0.12860
H          H       0.00454   0.10569   0.99353   0.12879
H          H       0.04872   0.00230   0.94007   0.12466
H          H       0.44940   0.49549   0.44024   0.12432
H          H      -0.00008   0.54894   0.19028   0.12427
H          H       0.50373   0.94847   0.69066   0.12692
H          H       0.95042   0.49975   0.30934   0.12669
H          H       0.55027  -0.00084   0.80949   0.12347
H          H       0.00227   0.95458   0.05966   0.12463
H          H       0.49818   0.55014   0.55899   0.12629
H          H       0.54913   0.49752   0.44045   0.12674
H          H       0.94863   0.00013   0.94061   0.12659
H          H       0.50471   0.04924   0.69078   0.12418
H          H      -0.00089   0.44879   0.19049   0.12559
H          H       0.45096   0.00041   0.80970   0.12387
H          H       0.05045   0.50231   0.30917   0.12356
H          H       0.49893   0.44944   0.55944   0.12622
H          H       0.00049   0.05495   0.05871   0.12273
H          H       0.18459   0.01234   0.94687   0.07426
H          H       0.31347   0.49687   0.44730   0.07377
H          H       0.00173   0.68575   0.19733   0.07381
H          H       0.49274   0.81187   0.69745   0.07572
H          H       0.81487   0.48887   0.30171   0.07239
H          H       0.68586   0.00367   0.80202   0.07435
H          H       0.01133   0.81776   0.05335   0.07449
H          H       0.49446   0.68656   0.55095   0.07069
H          H       0.68462   0.50760   0.44825   0.07182
H          H       0.81312   0.00081   0.94859   0.07486
H          H       0.49177   0.18494   0.69799   0.07393
H          H       0.00808   0.31252   0.19770   0.07606
H          H       0.31555   0.01018   0.80262   0.07467
H          H       0.18571   0.51342   0.30177   0.07429
H          H       0.49469   0.31252   0.55275   0.07486
H          H       0.01141   0.19067   0.05071   0.07548
H          H       0.11519   0.03238   0.89355   0.11896
H          H       0.38517   0.52268   0.39438   0.11824
H          H       0.02736   0.61557   0.14425   0.11840
H          H       0.47487   0.88544   0.64458   0.11891
H          H       0.88876   0.50649   0.35617   0.11733
H          H       0.61299   0.01758   0.85571   0.11808
H          H       0.02738   0.88960   0.10657   0.11864
H          H       0.48060   0.61291   0.60485   0.11756
H          H       0.61306   0.51710   0.39438   0.11872
H          H       0.88334   0.02787   0.89540   0.11868
H          H       0.48999   0.11168   0.64426   0.11799
H          H       0.02678   0.38683   0.14487   0.11779
H          H       0.38734   0.02416   0.85617   0.11844
H          H       0.11336   0.51972   0.35554   0.11877
H          H       0.47050   0.38349   0.60539   0.11861
H          H       0.01810   0.11570   0.10423   0.11821
H          H       0.17299   0.03307   0.86744   0.10905
H          H       0.32863   0.52689   0.36797   0.10892
H          H       0.03046   0.67385   0.11808   0.10997
H          H       0.47266   0.82939   0.61790   0.10962
H          H       0.83400   0.50684   0.38286   0.10760
H          H       0.66864   0.01929   0.88244   0.10969
H          H       0.02817   0.83176   0.13287   0.10933
H          H       0.47968   0.66878   0.63164   0.10917
H          H       0.66882   0.52142   0.36810   0.10737
H          H       0.82718   0.02920   0.86882   0.10926
H          H       0.48896   0.16842   0.61773   0.10975
H          H       0.02737   0.33166   0.11792   0.10930
H          H       0.33029   0.02665   0.88248   0.10892
H          H       0.16955   0.51918   0.38214   0.10896
H          H       0.47173   0.32702   0.63207   0.10909
H          H       0.01870   0.17079   0.13123   0.10967
H          H       0.22699   0.97132   0.92748   0.11402
H          H       0.26916   0.46021   0.42681   0.11408
H          H       0.96579   0.72898   0.17748   0.11430
H          H       0.53340   0.76892   0.67723   0.11337
H          H       0.76345   0.49805   0.32096   0.11350
H          H       0.73201   0.97136   0.82200   0.11343
H          H       0.97147   0.77302   0.07255   0.11398
H          H       0.52342   0.73499   0.57089   0.11439
H          H       0.73269   0.47484   0.42860   0.11446
H          H       0.76898   0.96221   0.92781   0.11384
H          H       0.52813   0.23358   0.67902   0.11341
H          H       0.96719   0.26844   0.17721   0.11347
H          H       0.26942   0.97308   0.82205   0.11394
H          H       0.23176   0.47664   0.32096   0.11407
H          H       0.53822   0.27239   0.57286   0.11441
H          H       0.97659   0.23762   0.07056   0.11367
C          C       0.09352   0.00401   0.99053  -0.28237
C          C       0.40557   0.49433   0.49077  -0.27748
C          C       0.99619   0.59305   0.24081  -0.27763
C          C       0.49654   0.90462   0.74117  -0.27829
C          C       0.90725   0.49577   0.25869  -0.27984
C          C       0.59247   0.99660   0.75878  -0.27823
C          C       0.00237   0.90808   0.00938  -0.27864
C          C       0.50027   0.59187   0.50815  -0.27843
C          C       0.59131   0.49943   0.49121  -0.27834
C          C       0.90802   0.99780   0.99149  -0.27841
C          C       0.49793   0.09162   0.74144  -0.27917
C          C       0.00236   0.40610   0.24121  -0.28068
C          C       0.40693   0.00101   0.75915  -0.27921
C          C       0.09262   0.50499   0.25844  -0.28010
C          C       0.49798   0.40474   0.50897  -0.27666
C          C       0.00377   0.09499   0.00771  -0.27874
C          C       0.12713   0.00564   0.97616   0.20759
C          C       0.37165   0.49199   0.47646   0.20771
C          C       0.99550   0.62719   0.22649   0.20652
C          C       0.49611   0.87034   0.72690   0.20906
C          C       0.87320   0.49460   0.27291   0.20695
C          C       0.62683   0.99654   0.77295   0.20835
C          C       0.00347   0.87468   0.02391   0.20710
C          C       0.50125   0.62676   0.52221   0.20809
C          C       0.62573   0.49982   0.47709   0.20761
C          C       0.87315   0.99702   0.97750   0.20610
C          C       0.49701   0.12615   0.72726   0.20795
C          C       0.00313   0.37160   0.22703   0.20935
C          C       0.37317   0.00286   0.77346   0.20634
C          C       0.12695   0.50703   0.27261   0.20724
C          C       0.49784   0.37069   0.52333   0.20703
C          C       0.00561   0.13031   0.02162   0.20649
C          C       0.11073   0.00504   0.95783  -0.05170
C          C       0.38765   0.49315   0.45809  -0.05177
C          C       0.99724   0.61102   0.20814  -0.05064
C          C       0.49893   0.88643   0.70854  -0.05346
C          C       0.88894   0.49612   0.29134  -0.05194
C          C       0.61144   0.99765   0.79141  -0.05084
C          C       0.00373   0.89168   0.04217  -0.05185
C          C       0.49969   0.61149   0.54069  -0.05140
C          C       0.61030   0.49932   0.45863  -0.05252
C          C       0.88798   0.99801   0.95897  -0.05097
C          C       0.50016   0.11065   0.70886  -0.05148
C          C       0.00198   0.38719   0.20860  -0.05337
C          C       0.38924   0.00229   0.79183  -0.05048
C          C       0.11150   0.50567   0.29104  -0.05130
C          C       0.49824   0.38718   0.54165  -0.05208
C          C       0.00371   0.11561   0.04015  -0.05135
C          C       0.06014   0.00266   0.95421  -0.13390
C          C       0.43820   0.49490   0.45438  -0.13362
C          C       0.99849   0.56015   0.20442  -0.13431
C          C       0.50188   0.93734   0.70482  -0.13501
C          C       0.93945   0.49849   0.29516  -0.13566
C          C       0.56101   0.99817   0.79530  -0.13432
C          C       0.00230   0.94269   0.04558  -0.13467
C          C       0.49888   0.56072   0.54476  -0.13555
C          C       0.55986   0.49790   0.45466  -0.13418
C          C       0.93834  -0.00071   0.95486  -0.13592
C          C       0.50299   0.05994   0.70498  -0.13439
C          C       0.00016   0.43796   0.20469  -0.13343
C          C       0.43970   0.00034   0.79555  -0.13486
C          C       0.06112   0.50295   0.29497  -0.13242
C          C       0.49865   0.43814   0.54529  -0.13556
C          C       0.00137   0.06501   0.04443  -0.13104
C          C       0.02669   0.00132   0.96841  -0.00276
C          C       0.47194   0.49624   0.46852  -0.00284
C          C       0.99866   0.52624   0.21856  -0.00142
C          C       0.50169   0.97140   0.71890  -0.00418
C          C       0.97332   0.49916   0.28109  -0.00272
C          C       0.52688   0.99796   0.78130  -0.00218
C          C       0.00128   0.97591   0.03121  -0.00080
C          C       0.49868   0.52606   0.53086  -0.00393
C          C       0.52564   0.49746   0.46862  -0.00644
C          C       0.97298  -0.00018   0.96869  -0.00327
C          C       0.50241   0.02551   0.71897  -0.00218
C          C      -0.00009   0.47225   0.21869  -0.00561
C          C       0.47327  -0.00113   0.78140  -0.00310
C          C       0.02699   0.50142   0.28098  -0.00556
C          C       0.49848   0.47196   0.53111  -0.00245
C          C       0.00101   0.02994   0.03071  -0.00658
C          C       0.04388   0.00187   0.98646   0.06119
C          C       0.45518   0.49646   0.48662   0.05858
C          C       0.99805   0.54314   0.23664   0.05874
C          C       0.49903   0.95456   0.73699   0.05833
C          C       0.95671   0.49796   0.26298   0.05703
C          C       0.54306   0.99749   0.76315   0.05776
C          C       0.00167   0.95819   0.01322   0.05919
C          C       0.49876   0.54210   0.51266   0.05844
C          C       0.54187   0.49833   0.48678   0.06191
C          C       0.95730  -0.00067   0.98691   0.05714
C          C       0.50041   0.04187   0.73710   0.05814
C          C       0.00081   0.45591   0.23685   0.06032
C          C       0.45647  -0.00108   0.76331   0.05775
C          C       0.04322   0.50214   0.26282   0.06025
C          C       0.49832   0.45476   0.51306   0.05857
C          C       0.00157   0.04542   0.01245   0.05970
C          C       0.14608   0.00713   0.94303   0.08327
C          C       0.35198   0.49376   0.44334   0.08412
C          C       0.99873   0.64684   0.19340   0.08246
C          C       0.49800   0.85076   0.69372   0.08377
C          C       0.85292   0.49529   0.30593   0.08379
C          C       0.64743  -0.00101   0.80606   0.08317
C          C       0.00557   0.85638   0.05706   0.08486
C          C       0.49842   0.64806   0.55518   0.08586
C          C       0.64652   0.50103   0.44411   0.08646
C          C       0.85157   0.99851   0.94444   0.08357
C          C       0.49943   0.14676   0.69417   0.08421
C          C       0.00310   0.35123   0.19389   0.08349
C          C       0.35373   0.00426   0.80656   0.08162
C          C       0.14743   0.50695   0.30569   0.08374
C          C       0.49796   0.35157   0.55648   0.08350
C          C       0.00491   0.15212   0.05468   0.08310
C          C       0.15246   0.01953   0.89515  -0.15976
C          C       0.34726   0.51025   0.39557  -0.15821
C          C       0.01488   0.65325   0.14566  -0.15802
C          C       0.48696   0.84754   0.64575  -0.16039
C          C       0.84925   0.50411   0.35445  -0.15352
C          C       0.65136   0.00815   0.85431  -0.15704
C          C       0.01567   0.85131   0.10502  -0.15980
C          C       0.48956   0.65194   0.60344  -0.15506
C          C       0.65172   0.50909   0.39597  -0.15873
C          C       0.84584   0.01416   0.89656  -0.15998
C          C       0.49778   0.15088   0.64593  -0.15759
C          C       0.01411   0.34870   0.14589  -0.15768
C          C       0.34892   0.01388   0.85459  -0.15957
C          C       0.15173   0.51052   0.35394  -0.15956
C          C       0.48542   0.34665   0.60430  -0.16031
C          C       0.00933   0.15452   0.10294  -0.15798
C          C       0.18480   0.01954   0.88060  -0.13659
C          C       0.31553   0.51227   0.38085  -0.13563
C          C       0.01633   0.68589   0.13110  -0.13818
C          C       0.48614   0.81612   0.63087  -0.13721
C          C       0.81816   0.50392   0.36937  -0.13706
C          C       0.68262   0.00878   0.86922  -0.13886
C          C       0.01587   0.81891   0.11964  -0.13673
C          C       0.48945   0.68326   0.61835  -0.13766
C          C       0.68337   0.51105   0.38125  -0.13424
C          C       0.81434   0.01455   0.88174  -0.13575
C          C       0.49747   0.18273   0.63116  -0.13720
C          C       0.01401   0.31778   0.13088  -0.13632
C          C       0.31692   0.01499   0.86923  -0.13613
C          C       0.18323   0.50980   0.36875  -0.13655
C          C       0.48654   0.31507   0.61914  -0.13603
C          C       0.00922   0.18538   0.11797  -0.13735
C          C       0.23311   0.00298   0.88266   0.05530
C          C       0.26635   0.49644   0.38238   0.05344
C          C       0.00062   0.73482   0.13302   0.05477
C          C       0.50155   0.76694   0.63234   0.05511
C          C       0.76686   0.50103   0.36732   0.05670
C          C       0.73240   0.99689   0.86742   0.05750
C          C       0.00122   0.76922   0.11754   0.05457
C          C       0.50099   0.73382   0.61650   0.05570
C          C       0.73349   0.50019   0.38307   0.05301
C          C       0.76567   0.99703   0.88321   0.05354
C          C       0.50686   0.23361   0.63331   0.05554
C          C       0.99781   0.26833   0.13222   0.05369
C          C       0.26709   0.00209   0.86716   0.05527
C          C       0.23294   0.49793   0.36668   0.05594
C          C       0.50564   0.26727   0.61761   0.05374
C          C       0.99794   0.23568   0.11626   0.05580
C          C       0.24763   0.98632   0.89991  -0.13154
C          C       0.25047   0.47821   0.39932  -0.13269
C          C       0.98312   0.74966   0.15008  -0.13255
C          C       0.51811   0.75073   0.64942  -0.13191
C          C       0.74867   0.49903   0.34939  -0.12836
C          C       0.74930   0.98410   0.85002  -0.13470
C          C       0.98594   0.75341   0.10023  -0.13114
C          C       0.51257   0.75156   0.59902  -0.13217
C          C       0.74997   0.48741   0.40059  -0.12979
C          C       0.75017   0.97878   0.90020  -0.13105
C          C       0.51761   0.25100   0.65089  -0.13327
C          C       0.98141   0.25132   0.14927  -0.13423
C          C       0.25082   0.98746   0.84982  -0.13527
C          C       0.24957   0.48664   0.34909  -0.13111
C          C       0.52363   0.25259   0.60058  -0.13230
C          C       0.98670   0.25365   0.09883  -0.13178
C          C       0.21546   0.98628   0.91451  -0.18061
C          C       0.28202   0.47615   0.41411  -0.17944
C          C       0.98136   0.71713   0.16466  -0.18093
C          C       0.51884   0.78194   0.66439  -0.17793
C          C       0.77953   0.49945   0.33444  -0.17591
C          C       0.71815   0.98325   0.83508  -0.17696
C          C       0.98542   0.78570   0.08558  -0.18085
C          C       0.51270   0.72038   0.58406  -0.17875
C          C       0.71864   0.48603   0.41545  -0.17926
C          C       0.78156   0.97826   0.91509  -0.17936
C          C       0.51808   0.21929   0.66573  -0.17810
C          C       0.98160   0.28206   0.16437  -0.17824
C          C       0.28264   0.98625   0.83512  -0.17865
C          C       0.21822   0.48734   0.33423  -0.17974
C          C       0.52248   0.28400   0.58568  -0.18106
C          C       0.98695   0.22297   0.08373  -0.17802
C          C       0.16729   0.00354   0.91245   0.20139
C          C       0.33105   0.49289   0.41257   0.20201
C          C       0.99797   0.66837   0.16278   0.20195
C          C       0.50253   0.83092   0.66289   0.20209
C          C       0.83089   0.50150   0.33662   0.20290
C          C       0.66846   0.99593   0.83689   0.20162
C          C       0.00108   0.83522   0.08765   0.20294
C          C       0.50077   0.66978   0.58597   0.20082
C          C       0.66863   0.49732   0.41346   0.20496
C          C       0.83004   0.99669   0.91361   0.20289
C          C       0.50719   0.16855   0.66357   0.20128
C          C       0.99861   0.33135   0.16299   0.20128
C          C       0.33233   0.00024   0.83719   0.20226
C          C       0.16862   0.49999   0.33634   0.20290
C          C       0.50275   0.33159   0.58724   0.20266
C          C       0.99880   0.17270   0.08549   0.20194
C          C       0.50429   0.69362   0.50084  -0.18431
C          C       0.99782   0.80583   0.00359  -0.18297
C          C       0.30595   0.00615   0.75256  -0.18271
C          C       0.19322   0.51163   0.25138  -0.18394
C          C       0.49056   0.80303   0.74796  -0.18135
C          C       0.99522   0.69519   0.24732  -0.18352
C          C       0.69215   0.50103   0.49838  -0.18243
C          C       0.80752   0.99500   0.99914  -0.18087
C          C       0.01178   0.19599  -0.00011  -0.18257
C          C       0.49500   0.30287   0.50253  -0.18374
C          C       0.80652   0.48995   0.25174  -0.18013
C          C       0.69319   0.99574   0.75166  -0.18215
C          C       0.00559   0.30448   0.24824  -0.18440
C          C       0.48926   0.19309   0.74834  -0.18282
C          C       0.19486   0.00881   0.99691  -0.18154
C          C       0.30446   0.48778   0.49739  -0.18193
C          C       0.00115   0.00096  -0.00024   0.01490
C          C       0.49840   0.49799   0.49978   0.01485
C          C      -0.00027   0.49975   0.24983   0.01683
C          C       0.49950   0.99807   0.75014   0.01883
N          N       0.50087   0.63475   0.57201  -0.30117
N          N       0.00132   0.87044   0.07375  -0.30046
N          N       0.36727  -0.00009   0.82330  -0.29865
N          N       0.13390   0.50095   0.32238  -0.29969
N          N       0.50221   0.86523   0.67705  -0.29815
N          N       0.99757   0.63292   0.17662  -0.29942
N          N       0.63357   0.49617   0.42730  -0.30183
N          N       0.86483   0.99731   0.92759  -0.29964
N          N      -0.00080   0.13834   0.07136  -0.29947
N          N       0.50087   0.36612   0.57316  -0.29732
N          N       0.86586   0.50182   0.32268  -0.30796
N          N       0.63384   0.99567   0.82285  -0.30125
N          N      -0.00067   0.36548   0.17720  -0.29796
N          N       0.50672   0.13351   0.67754  -0.29979
N          N       0.13220   0.00382   0.92628  -0.29824
N          N       0.36579   0.49230   0.42656  -0.30002
O          O       0.50448   0.67674   0.51927  -0.16930
O          O       0.00400   0.82448   0.02167  -0.16837
O          O       0.32350   0.00501   0.77089  -0.16847
O          O       0.17656   0.50991   0.26982  -0.16833
O          O       0.49298   0.82026   0.72957  -0.16925
O          O       0.99292   0.67725   0.22904  -0.16830
O          O       0.67541   0.50011   0.47994  -0.16901
O          O       0.82365   0.99501   0.98063  -0.16789
O          O       0.00933   0.18008   0.01842  -0.16886
O          O       0.49766   0.32048   0.52086  -0.16950
O          O       0.82356   0.49252   0.27012  -0.16930
O          O       0.67639   0.99511   0.77009  -0.16922
O          O       0.00471   0.32165   0.22985  -0.16830
O          O       0.49303   0.17598   0.72999  -0.16840
O          O       0.17690   0.00751   0.97863  -0.16836
O          O       0.32198   0.48776   0.47906  -0.16865

