data_crystal

_audit_creation_method 'AiiDA-DDEC plugin'

_cell_length_a        27.07080
_cell_length_b        27.08010
_cell_length_c        73.52675

_cell_angle_alpha     90.57854
_cell_angle_beta     89.84714
_cell_angle_gamma     88.14647

_symmetry_space_group_name_Hall 'P 1'
_symmetry_space_group_name_H-M  'P 1'

loop_
_symmetry_equiv_pos_as_xyz
 'x,y,z'

loop_
_atom_site_label
_atom_site_type_symbol
_atom_site_fract_x
_atom_site_fract_y
_atom_site_fract_z
_atom_site_charge
H          H       0.53821   0.67468   0.49425   0.10733
H          H       0.97695   0.81521   0.99336   0.10763
H          H       0.31793   0.04126   0.74425   0.10613
H          H       0.18415   0.46989   0.24524   0.10796
H          H       0.47439   0.81969   0.75541   0.10816
H          H       0.01917   0.69274   0.25391   0.10643
H          H       0.68216   0.44859   0.50271   0.10700
H          H       0.81882   0.02953   0.00584   0.10709
H          H       0.03500   0.18267   0.99839   0.10743
H          H       0.46317   0.31344   0.49336   0.10747
H          H       0.81730   0.54807   0.24627   0.10672
H          H       0.68580   0.96734   0.74561   0.10801
H          H       0.97015   0.32428   0.25715   0.10835
H          H       0.53580   0.18571   0.75421   0.10606
H          H       0.18627   0.95847   0.00371   0.10619
H          H       0.31512   0.53845   0.50371   0.10738
H          H       0.50634   0.73028   0.50186   0.12125
H          H       0.00942   0.76247   0.00256   0.12129
H          H       0.26585   0.00735   0.75163   0.12031
H          H       0.23693   0.50178   0.25336   0.12041
H          H       0.50755   0.76633   0.74653   0.12122
H          H       0.98141   0.74219   0.24488   0.12117
H          H       0.73597   0.47943   0.49507   0.11969
H          H       0.76739   0.99606   0.99734   0.12147
H          H      -0.00042   0.23613   0.00594   0.12064
H          H       0.49471   0.25922   0.50190   0.12152
H          H       0.76426   0.51576   0.25372   0.12076
H          H       0.73861   0.99790   0.75436   0.12097
H          H       0.00646   0.27066   0.25021   0.12161
H          H       0.50130   0.23896   0.74631   0.12077
H          H       0.23909   0.99132   0.99646   0.12014
H          H       0.26175   0.50819   0.49528   0.12030
H          H       0.47193   0.67940   0.49345   0.10780
H          H       0.04317   0.81433   0.99498   0.10603
H          H       0.31981   0.97493   0.74292   0.10692
H          H       0.18435   0.53620   0.24484   0.10715
H          H       0.54076   0.81855   0.75446   0.10540
H          H       0.95300   0.68851   0.25370   0.10881
H          H       0.68518   0.51457   0.50486   0.10579
H          H       0.82174   0.96313   0.00520   0.10966
H          H       0.96897   0.18482   0.99595   0.10630
H          H       0.52958   0.30973   0.49375   0.10641
H          H       0.81651   0.48192   0.24432   0.10806
H          H       0.68665   0.03366   0.74606   0.10580
H          H       0.03643   0.32452   0.25853   0.10789
H          H       0.46944   0.18734   0.75521   0.10864
H          H       0.18670   0.02454   0.00600   0.10712
H          H       0.31271   0.47220   0.50422   0.10689
H          H       0.53529   0.81992   0.60376   0.13337
H          H       0.08696   0.71927   0.11584   0.13288
H          H       0.18663   0.94703   0.86137   0.13646
H          H       0.31728   0.55994   0.36105   0.13483
H          H       0.59136   0.71773   0.63526   0.13336
H          H       0.04066   0.82583   0.14790   0.13187
H          H       0.81599   0.55858   0.39044   0.13520
H          H       0.67956   0.05019   0.89835   0.13217
H          H       0.91061   0.28716   0.11786   0.13430
H          H       0.58095   0.20089   0.61134   0.13335
H          H       0.68832   0.43369   0.36082   0.13629
H          H       0.78310   0.08681   0.86303   0.13366
H          H       0.93801   0.18499   0.15683   0.13233
H          H       0.54551   0.31317   0.64286   0.13574
H          H       0.32085   0.06549   0.89033   0.13616
H          H       0.17970   0.44532   0.38982   0.13627
H          H       0.57523   0.78904   0.58773   0.12890
H          H       0.08433   0.71458   0.09168   0.12915
H          H       0.21752   0.91386   0.84363   0.13425
H          H       0.28777   0.59297   0.34325   0.13269
H          H       0.58611   0.71177   0.65926   0.12967
H          H       0.07957   0.79259   0.16331   0.12996
H          H       0.78368   0.58834   0.40863   0.13286
H          H       0.71627   0.09296   0.91034   0.12921
H          H       0.91357   0.28925   0.09368   0.12880
H          H       0.57828   0.20102   0.58713   0.12946
H          H       0.71959   0.40402   0.34233   0.13314
H          H       0.78994   0.07394   0.83936   0.12889
H          H       0.89327   0.23342   0.16050   0.12946
H          H       0.58641   0.27900   0.65735   0.12956
H          H       0.28979   0.09706   0.90838   0.13378
H          H       0.21050   0.41259   0.40737   0.13333
H          H       0.58576   0.78356   0.61152   0.13307
H          H       0.04085   0.68438   0.10557   0.13446
H          H       0.18060   0.96680   0.83847   0.12754
H          H       0.32253   0.53825   0.33821   0.12647
H          H       0.54618   0.67975   0.64434   0.13365
H          H       0.08938   0.78768   0.13941   0.13379
H          H       0.82171   0.53557   0.41293   0.12653
H          H       0.71593   0.09106   0.88612   0.13253
H          H       0.95961   0.31685   0.10731   0.13415
H          H       0.53296   0.17086   0.60014   0.13255
H          H       0.68029   0.45604   0.33835   0.12701
H          H       0.81872   0.03478   0.85582   0.13392
H          H       0.90944   0.21363   0.13800   0.13203
H          H       0.58961   0.27143   0.63329   0.13362
H          H       0.32612   0.04330   0.91294   0.12724
H          H       0.17582   0.46723   0.41269   0.12721
H          H       0.10871   0.99566   0.00506   0.12904
H          H       0.39281   0.50066   0.50431   0.12897
H          H       0.99368   0.61224   0.25460   0.13020
H          H       0.50492   0.89749   0.75505   0.12921
H          H       0.89506   0.51153   0.24512   0.12865
H          H       0.60870   0.00316   0.74534   0.13108
H          H       0.00749   0.89393   0.99439   0.12981
H          H       0.50190   0.60025   0.49399   0.12871
H          H       0.60497   0.48951   0.50423   0.12944
H          H       0.89754   0.99746   0.00535   0.12843
H          H       0.50187   0.10894   0.75480   0.12936
H          H       0.00309   0.40257   0.25687   0.12898
H          H       0.39688   0.00623   0.74402   0.13073
H          H       0.10622   0.50683   0.24493   0.12882
H          H       0.49778   0.38982   0.49373   0.12884
H          H       0.00081   0.10691   0.99633   0.12810
H          H       0.05219   0.01172   0.94062   0.12633
H          H       0.44985   0.49457   0.43950   0.12566
H          H      -0.00043   0.55100   0.19012   0.12505
H          H       0.50064   0.95123   0.69015   0.12351
H          H       0.95049   0.50056   0.30985   0.12450
H          H       0.54910   0.00145   0.80975   0.12389
H          H       0.99488   0.94915   0.05937   0.12392
H          H       0.49691   0.54694   0.55886   0.12665
H          H       0.54898   0.49706   0.43948   0.12314
H          H       0.95287   0.00624   0.94052   0.12442
H          H       0.50202   0.05082   0.69001   0.12507
H          H       0.00191   0.44973   0.19124   0.12751
H          H       0.44974   0.00099   0.80909   0.12469
H          H       0.05037   0.50687   0.30986   0.12339
H          H       0.49862   0.44611   0.55873   0.12608
H          H       0.99413   0.04729   0.06038   0.12323
H          H       0.18937   0.00096   0.94696   0.07422
H          H       0.31295   0.50665   0.44611   0.07208
H          H       0.99535   0.68932   0.19673   0.07480
H          H       0.50323   0.81432   0.69700   0.07650
H          H       0.81378   0.50805   0.30340   0.07544
H          H       0.68650  -0.00007   0.80412   0.07224
H          H       0.00296   0.81263   0.05272   0.07647
H          H       0.49858   0.68396   0.55188   0.07624
H          H       0.68581   0.48734   0.44601   0.07542
H          H       0.81550   0.00231   0.94776   0.07646
H          H       0.50361   0.18779   0.69626   0.07562
H          H       0.00078   0.31382   0.20011   0.07720
H          H       0.31335   0.00629   0.80211   0.07593
H          H       0.18713   0.50080   0.30306   0.07521
H          H       0.49641   0.30891   0.55144   0.07347
H          H       0.99171   0.18459   0.05576   0.07555
H          H       0.11341   0.02588   0.89321   0.12617
H          H       0.38863   0.48073   0.39218   0.12723
H          H       0.94106   0.63495   0.14660   0.12272
H          H       0.43803   0.87264   0.64839   0.12223
H          H       0.89248   0.48570   0.35657   0.12564
H          H       0.62127   0.94865   0.85417   0.12269
H          H       0.94347   0.88231   0.10210   0.12187
H          H       0.44529   0.62400   0.60247   0.12039
H          H       0.61036   0.51024   0.39227   0.12788
H          H       0.87014   0.93727   0.89876   0.12247
H          H       0.43680   0.12793   0.64789   0.12330
H          H       0.06658   0.35604   0.15059   0.12307
H          H       0.39355   0.99111   0.85580   0.12509
H          H       0.10865   0.52292   0.35669   0.12852
H          H       0.44593   0.37357   0.60186   0.12319
H          H       0.04274   0.11318   0.10526   0.12389
H          H       0.23519   0.04391   0.92828   0.12118
H          H       0.26692   0.46432   0.42753   0.12204
H          H       0.05082   0.71693   0.17483   0.11453
H          H       0.55437   0.78536   0.67304   0.11473
H          H       0.77101   0.45889   0.32225   0.12158
H          H       0.71456   0.04942   0.82673   0.11315
H          H       0.05154   0.78447   0.07675   0.11442
H          H       0.54788   0.71496   0.57477   0.11473
H          H       0.72979   0.53382   0.42793   0.12140
H          H       0.78733   0.05731   0.92404   0.11490
H          H       0.55296   0.21047   0.67202   0.11432
H          H       0.94189   0.29276   0.17670   0.11562
H          H       0.26956   0.96660   0.82245   0.12125
H          H       0.23235   0.54248   0.32258   0.12134
H          H       0.54849   0.27515   0.57388   0.11463
H          H       0.94244   0.21555   0.07897   0.11387
H          H       0.44512   0.82274   0.60497   0.13236
H          H       0.90437   0.72787   0.11589   0.13284
H          H       0.18846   0.04564   0.85169   0.13404
H          H       0.31286   0.46154   0.35074   0.13400
H          H       0.40724   0.70897   0.63610   0.13370
H          H       0.95297   0.83257   0.14678   0.13122
H          H       0.82113   0.46158   0.39854   0.13542
H          H       0.67132   0.96282   0.89774   0.13137
H          H       0.08864   0.25911   0.11791   0.13450
H          H       0.40654   0.21457   0.61256   0.13244
H          H       0.68561   0.53309   0.35105   0.13426
H          H       0.77947   0.89979   0.86853   0.13333
H          H       0.02939   0.14267   0.14702   0.13209
H          H       0.41883   0.35651   0.63207   0.13113
H          H       0.32340   0.96918   0.89825   0.13553
H          H       0.18129   0.54199   0.39883   0.13526
H          H       0.40094   0.84777   0.62079   0.13087
H          H       0.90676   0.66272   0.11895   0.13144
H          H       0.14189   0.07533   0.86520   0.13464
H          H       0.35776   0.42999   0.36412   0.13383
H          H       0.41585   0.64434   0.63196   0.13105
H          H       0.91416   0.86827   0.13205   0.13115
H          H       0.86814   0.43445   0.38459   0.13385
H          H       0.64113   0.91893   0.88382   0.13146
H          H       0.09991   0.32224   0.12308   0.12960
H          H       0.40088   0.15193   0.61933   0.13162
H          H       0.63893   0.56243   0.36459   0.13447
H          H       0.84480   0.90184   0.87076   0.13048
H          H       0.08424   0.13966   0.13381   0.13114
H          H       0.39844   0.29486   0.63129   0.13292
H          H       0.36910   0.94074   0.88407   0.13420
H          H       0.13549   0.57170   0.38530   0.13428
H          H       0.40351   0.78337   0.61548   0.13355
H          H       0.94970   0.69152   0.10440   0.13243
H          H       0.13343   0.01466   0.85709   0.12837
H          H       0.36922   0.49002   0.35638   0.12741
H          H       0.45753   0.67679   0.64607   0.13187
H          H       0.90379   0.80452   0.13553   0.13286
H          H       0.87400   0.49556   0.39268   0.12712
H          H       0.70553   0.91226   0.88851   0.13298
H          H       0.05166   0.30603   0.10797   0.13217
H          H       0.44819   0.16888   0.60402   0.13030
H          H       0.63089   0.50157   0.35657   0.12843
H          H       0.81215   0.94249   0.85574   0.13210
H          H       0.06508   0.19572   0.14507   0.13098
H          H       0.44928   0.30916   0.64503   0.13221
H          H       0.37704   0.00158   0.89210   0.12912
H          H       0.12659   0.51098   0.39287   0.12843
C          C       0.09665  -0.00101   0.99105  -0.27868
C          C       0.40498   0.49962   0.49022  -0.27827
C          C       0.99512   0.59930   0.24057  -0.27821
C          C       0.50429   0.90892   0.74094  -0.27859
C          C       0.90676   0.50926   0.25921  -0.28059
C          C       0.59599   0.00249   0.75935  -0.28220
C          C       0.00502   0.90579   0.00852  -0.27862
C          C       0.50078   0.58898   0.50812  -0.28006
C          C       0.59299   0.49063   0.49015  -0.28018
C          C       0.90925  -0.00033   0.99126  -0.27808
C          C       0.50202   0.09652   0.74072  -0.28068
C          C       0.00312   0.41243   0.24259  -0.27872
C          C       0.40812   0.00516   0.75818  -0.28021
C          C       0.09433   0.50652   0.25904  -0.27865
C          C       0.49780   0.40182   0.50786  -0.27836
C          C      -0.00071   0.09399   0.01024  -0.27873
C          C       0.13086   0.00060   0.97667   0.20447
C          C       0.37089   0.50054   0.47583   0.20589
C          C       0.99286   0.63229   0.22598   0.20536
C          C       0.50399   0.87415   0.72661   0.20680
C          C       0.87244   0.50808   0.27353   0.20626
C          C       0.62953   0.00118   0.77391   0.20704
C          C       0.00358   0.87124   0.02269   0.20377
C          C       0.50071   0.62380   0.52241   0.20644
C          C       0.62722   0.49006   0.47576   0.20613
C          C       0.87491  -0.00003   0.97698   0.20769
C          C       0.50122   0.13030   0.72634   0.20617
C          C       0.00472   0.37631   0.22877   0.20748
C          C       0.37306   0.00460   0.77231   0.20567
C          C       0.12860   0.50576   0.27336   0.20534
C          C       0.49694   0.36762   0.52208   0.20708
C          C       0.99636   0.12749   0.02498   0.20670
C          C       0.11478   0.00602   0.95833  -0.04758
C          C       0.38728   0.49828   0.45741  -0.04877
C          C       0.99543   0.61473   0.20767  -0.05313
C          C       0.50225   0.88967   0.70818  -0.05286
C          C       0.88846   0.50402   0.29189  -0.05094
C          C       0.61236   0.00071   0.79224  -0.05365
C          C       0.00011   0.88718   0.04117  -0.05063
C          C       0.49873   0.60849   0.54087  -0.05338
C          C       0.61114   0.49308   0.45737  -0.04933
C          C       0.89075   0.00202   0.95851  -0.05625
C          C       0.50101   0.11362   0.70791  -0.05148
C          C       0.00419   0.39004   0.21014  -0.05368
C          C       0.38833   0.00272   0.79085  -0.04941
C          C       0.11250   0.50665   0.29181  -0.04842
C          C       0.49753   0.38384   0.54055  -0.05371
C          C       0.99474   0.11052   0.04325  -0.05324
C          C       0.06372   0.00816   0.95473  -0.13952
C          C       0.43830   0.49609   0.45369  -0.13867
C          C       0.99837   0.56350   0.20423  -0.13170
C          C       0.50187   0.94044   0.70437  -0.13275
C          C       0.93942   0.50307   0.29567  -0.13676
C          C       0.56118   0.00163   0.79562  -0.13303
C          C       0.99788   0.93805   0.04513  -0.13780
C          C       0.49808   0.55764   0.54465  -0.13653
C          C       0.56018   0.49504   0.45366  -0.13560
C          C       0.94158   0.00467   0.95472  -0.13401
C          C       0.50191   0.06253   0.70422  -0.13795
C          C       0.00259   0.44043   0.20560  -0.13678
C          C       0.43918   0.00210   0.79483  -0.13782
C          C       0.06155   0.50660   0.29564  -0.13574
C          C       0.49825   0.43478   0.54448  -0.13604
C          C       0.99533   0.05935   0.04632  -0.13368
C          C       0.02978   0.00519   0.96887  -0.00263
C          C       0.47211   0.49597   0.46788  -0.00269
C          C      -0.00039   0.53057   0.21866  -0.00560
C          C       0.50269   0.97493   0.71848  -0.00483
C          C       0.97349   0.50538   0.28156  -0.00261
C          C       0.52794   0.00236   0.78124  -0.00227
C          C      -0.00061   0.97221   0.03122  -0.00142
C          C       0.49868   0.52300   0.53053  -0.00294
C          C       0.52620   0.49457   0.46785  -0.00415
C          C       0.97572   0.00436   0.96885  -0.00349
C          C       0.50231   0.02900   0.71841  -0.00259
C          C       0.00157   0.47639   0.21926  -0.00323
C          C       0.47387   0.00289   0.78089  -0.00328
C          C       0.02755   0.50609   0.28151  -0.00489
C          C       0.49839   0.46882   0.53045  -0.00380
C          C       0.99812   0.02615   0.03176  -0.00443
C          C       0.04651   0.00149   0.98700   0.05744
C          C       0.45518   0.49712   0.48605   0.05798
C          C       0.99865   0.54901   0.23670   0.05818
C          C       0.50347   0.95884   0.73668   0.05817
C          C       0.95676   0.50740   0.26342   0.05765
C          C       0.54567   0.00274   0.76319   0.05825
C          C       0.00286   0.95594   0.01295   0.05763
C          C       0.49951   0.53919   0.51235   0.05834
C          C       0.54288   0.49324   0.48601   0.05805
C          C       0.95914   0.00141   0.98700   0.06027
C          C       0.50242   0.04634   0.73657   0.06019
C          C       0.00172   0.46177   0.23762   0.05945
C          C       0.45804   0.00408   0.76263   0.05726
C          C       0.04426   0.50692   0.26332   0.05676
C          C       0.49846   0.45184   0.51224   0.05792
C          C       0.00031   0.04368   0.01379   0.05793
C          C       0.15053   0.00855   0.94350   0.07750
C          C       0.35166   0.49796   0.44260   0.08296
C          C       0.99488   0.65015   0.19282   0.08164
C          C       0.50038   0.85346   0.69333   0.08184
C          C       0.85281   0.50078   0.30669   0.08053
C          C       0.64703  -0.00098   0.80745   0.08384
C          C      -0.00080   0.85209   0.05615   0.08395
C          C       0.49740   0.64496   0.55571   0.08256
C          C       0.64692   0.49483   0.44258   0.07977
C          C       0.85460   0.00048   0.94378   0.08443
C          C       0.49930   0.14860   0.69289   0.08370
C          C       0.00464   0.35221   0.19585   0.08196
C          C       0.35247   0.00129   0.80569   0.07997
C          C       0.14817   0.50805   0.30659   0.07943
C          C       0.49674   0.34811   0.55531   0.08584
C          C       0.99369   0.14496   0.05875   0.08386
C          C       0.15323   0.02275   0.89514  -0.25182
C          C       0.34885   0.48432   0.39422  -0.25334
C          C       0.96462   0.66670   0.14719  -0.25071
C          C       0.46296   0.84033   0.64791  -0.24877
C          C       0.85254   0.48630   0.35490  -0.25140
C          C       0.65469   0.96990   0.85406  -0.24729
C          C       0.96655   0.84874   0.10267  -0.24616
C          C       0.46708   0.65705   0.60230  -0.24598
C          C       0.65015   0.50892   0.39436  -0.25367
C          C       0.83845   0.96301   0.89859  -0.25045
C          C       0.46180   0.15851   0.64715  -0.24697
C          C       0.03839   0.32831   0.15063  -0.25071
C          C       0.35353   0.99280   0.85437  -0.24904
C          C       0.14858   0.51992   0.35503  -0.25337
C          C       0.46732   0.33886   0.60156  -0.24822
C          C       0.02149   0.14798   0.10563  -0.24524
C          C       0.18461   0.02262   0.88006   0.13268
C          C       0.31733   0.48468   0.37927   0.13105
C          C       0.96371   0.70124   0.13324   0.12979
C          C       0.46202   0.80742   0.63319   0.12823
C          C       0.82199   0.48489   0.37014   0.12851
C          C       0.68661   0.96915   0.86897   0.12771
C          C       0.96603   0.81878   0.11802   0.12607
C          C       0.46639   0.68943   0.61720   0.12854
C          C       0.68197   0.51024   0.37947   0.13223
C          C       0.80456   0.96198   0.88432   0.12730
C          C       0.46154   0.18933   0.63204   0.12930
C          C       0.03542   0.29421   0.13638   0.12836
C          C       0.32367   0.99240   0.86985   0.12796
C          C       0.17906   0.51916   0.37026   0.12821
C          C       0.46534   0.30619   0.61607   0.12604
C          C       0.02247   0.17868   0.12101   0.12711
C          C       0.23720   0.01559   0.88257  -0.04578
C          C       0.26494   0.49283   0.38208  -0.04534
C          C       0.99548   0.74157   0.13413  -0.05100
C          C       0.49543   0.76624   0.63271  -0.04901
C          C       0.76914   0.48882   0.36784  -0.04422
C          C       0.72961   0.99728   0.86849  -0.04491
C          C       0.99686   0.77576   0.11842  -0.04579
C          C       0.49556   0.73172   0.61678  -0.04850
C          C       0.73459   0.50529   0.38227  -0.04830
C          C       0.76436   0.99660   0.88418  -0.05175
C          C       0.49466   0.22846   0.63140  -0.04945
C          C       0.99803   0.25889   0.13666  -0.05314
C          C       0.27075   0.99790   0.86794  -0.04390
C          C       0.23168   0.51176   0.36784  -0.04466
C          C       0.49467   0.26209   0.61550  -0.04750
C          C       0.99486   0.22381   0.12100  -0.04641
C          C       0.25366   0.03209   0.90026   0.13408
C          C       0.24821   0.47668   0.39968   0.13329
C          C       0.02674   0.74758   0.14926   0.13033
C          C       0.52875   0.75815   0.64719   0.13050
C          C       0.75294   0.47067   0.35034   0.13451
C          C       0.73982   0.02618   0.85314   0.12794
C          C       0.02808   0.76353   0.10351   0.13119
C          C       0.52491   0.74106   0.60135   0.13046
C          C       0.74987   0.52246   0.40001   0.13533
C          C       0.75797   0.03096   0.89862   0.12948
C          C       0.52776   0.23619   0.64589   0.12904
C          C       0.96432   0.25804   0.15129   0.13204
C          C       0.25320   0.98007   0.85057   0.13454
C          C       0.24929   0.52896   0.35050   0.13344
C          C       0.52463   0.25072   0.60018   0.13101
C          C       0.96577   0.23705   0.10578   0.12943
C          C       0.22156   0.03183   0.91511  -0.28006
C          C       0.28050   0.47623   0.41439  -0.27996
C          C       0.02603   0.71308   0.16331  -0.26797
C          C       0.52813   0.79099   0.66201  -0.26737
C          C       0.78425   0.47228   0.33530  -0.27871
C          C       0.70748   0.02604   0.83834  -0.26180
C          C       0.02709   0.79352   0.08815  -0.26578
C          C       0.52434   0.70842   0.58647  -0.26594
C          C       0.71730   0.52106   0.41468  -0.28185
C          C       0.79162   0.03028   0.91304  -0.26707
C          C       0.52680   0.20528   0.66100  -0.26531
C          C       0.96855   0.29223   0.16558  -0.26857
C          C       0.28389   0.98005   0.83533  -0.27849
C          C       0.21796   0.52985   0.33550  -0.27874
C          C       0.52477   0.28339   0.58556  -0.26592
C          C       0.96558   0.20580   0.09055  -0.26312
C          C       0.17103   0.02192   0.91308   0.22315
C          C       0.33114   0.48544   0.41219   0.22295
C          C       0.99499   0.67244   0.16246   0.21733
C          C       0.49526   0.83229   0.66258   0.21627
C          C       0.83396   0.48549   0.33709   0.22112
C          C       0.66510   0.99734   0.83846   0.21414
C          C       0.99588   0.83600   0.08743   0.21727
C          C       0.49516   0.66634   0.58666   0.21656
C          C       0.66742   0.50899   0.41235   0.22299
C          C       0.83216   0.99645   0.91323   0.21682
C          C       0.49360   0.16647   0.66191   0.21417
C          C       0.00561   0.32742   0.16546   0.21528
C          C       0.33413   0.99174   0.83665   0.22313
C          C       0.16738   0.51991   0.33721   0.22382
C          C       0.49605   0.32764   0.58604   0.21426
C          C       0.99424   0.16146   0.09010   0.21237
C          C       0.50486   0.68995   0.50111  -0.18294
C          C       0.00890   0.80281   0.00154  -0.18334
C          C       0.30626   0.00728   0.75086  -0.18030
C          C       0.19656   0.50313   0.25238  -0.18383
C          C       0.50705   0.80672   0.74758  -0.18158
C          C       0.98522   0.70204   0.24634  -0.18406
C          C       0.69566   0.48223   0.49638  -0.18107
C          C       0.80774   0.99649   0.99824  -0.18380
C          C      -0.00006   0.19583   0.00460  -0.18224
C          C       0.49571   0.29951   0.50089  -0.18228
C          C       0.80463   0.51416   0.25265  -0.18496
C          C       0.69826  -0.00022   0.75323  -0.18363
C          C       0.00491   0.31115   0.25069  -0.18360
C          C       0.50177   0.19864   0.74737  -0.18337
C          C       0.19871   0.99270   0.99750  -0.18177
C          C       0.30205   0.50551   0.49655  -0.18267
C          C       0.55701   0.78565   0.60098  -0.42320
C          C       0.06192   0.71817   0.10409  -0.42396
C          C       0.20640   0.95109   0.84851  -0.42233
C          C       0.29731   0.55576   0.34824  -0.41848
C          C       0.56502   0.71464   0.64658  -0.42407
C          C       0.06091   0.79055   0.15011  -0.42195
C          C       0.79586   0.55212   0.40307  -0.41816
C          C       0.71534   0.06833   0.89843  -0.42092
C          C       0.93565   0.28495   0.10607  -0.42385
C          C       0.55599   0.20357   0.59960  -0.42293
C          C       0.70726   0.44015   0.34793  -0.42157
C          C       0.78520   0.05708   0.85272  -0.42404
C          C       0.92398   0.22078   0.15167  -0.42175
C          C       0.56427   0.27704   0.64491  -0.42506
C          C       0.30071   0.06025   0.90304  -0.42083
C          C       0.20043   0.44975   0.40244  -0.41951
C          C       0.16116   0.03970   0.86238  -0.41993
C          C       0.34019   0.46639   0.36148  -0.41776
C          C       0.92931   0.69528   0.11731  -0.42481
C          C       0.42589   0.81597   0.61786  -0.42431
C          C       0.84729   0.46908   0.38763  -0.41829
C          C       0.67531   0.93908   0.88556  -0.42415
C          C       0.93253   0.83198   0.13389  -0.42195
C          C       0.43506   0.67912   0.63365  -0.42388
C          C       0.65846   0.52693   0.36176  -0.42033
C          C       0.81088   0.92455   0.86907  -0.42307
C          C       0.42724   0.18058   0.61626  -0.42266
C          C       0.07101   0.29559   0.12057  -0.42229
C          C       0.34935   0.97593   0.88719  -0.41973
C          C       0.15461   0.53606   0.38795  -0.41928
C          C       0.43140   0.31760   0.63199  -0.42257
C          C       0.05215   0.16346   0.13752  -0.42228
C          C       0.00277   0.00033   0.00018   0.01678
C          C       0.49903   0.49526   0.49917   0.01831
C          C       0.00041   0.50684   0.25026   0.01722
C          C       0.50263   0.00319   0.74977   0.01655
N          N       0.49396   0.63135   0.57248  -0.29142
N          N       0.99370   0.86822   0.07268  -0.29098
N          N       0.36752   0.99466   0.82228  -0.30176
N          N       0.13333   0.51738   0.32310  -0.30024
N          N       0.49437   0.86748   0.67670  -0.28844
N          N       0.99328   0.63623   0.17596  -0.28941
N          N       0.63255   0.50505   0.42618  -0.29926
N          N       0.86814   0.99561   0.92695  -0.29032
N          N       0.99638   0.12862   0.07521  -0.29188
N          N       0.49532   0.36263   0.57212  -0.29055
N          N       0.86778   0.49014   0.32297  -0.29820
N          N       0.63132   0.99599   0.82404  -0.29007
N          N       0.00975   0.36390   0.17896  -0.28759
N          N       0.49205   0.13332   0.67640  -0.29051
N          N       0.13633   0.01881   0.92706  -0.29822
N          N       0.36592   0.48768   0.42608  -0.30109
O          O       0.50244   0.67378   0.51962  -0.16913
O          O       0.00503   0.82095   0.01991  -0.16941
O          O       0.32294   0.00507   0.76935  -0.17003
O          O       0.17888   0.50500   0.27079  -0.16908
O          O       0.50500   0.82403   0.72920  -0.16800
O          O       0.98762   0.68257   0.22814  -0.16701
O          O       0.67750   0.48752   0.47818  -0.16968
O          O       0.82492   0.99751   0.97979  -0.16846
O          O       0.99506   0.17777   0.02278  -0.16861
O          O       0.49517   0.31751   0.51930  -0.16892
O          O       0.82224   0.51000   0.27096  -0.16732
O          O       0.67992   0.00010   0.77158  -0.16937
O          O       0.00730   0.32652   0.23207  -0.16808
O          O       0.50010   0.18053   0.72899  -0.16811
O          O       0.18110   0.99757   0.97919  -0.16955
O          O       0.32050   0.50261   0.47825  -0.16940

