data_crystal

_audit_creation_method 'AiiDA-DDEC plugin'

_cell_length_a        17.36528
_cell_length_b        25.25497
_cell_length_c         8.57644

_cell_angle_alpha     94.68102
_cell_angle_beta     99.81304
_cell_angle_gamma     92.50482

_symmetry_space_group_name_Hall 'P 1'
_symmetry_space_group_name_H-M  'P 1'

loop_
_symmetry_equiv_pos_as_xyz
 'x,y,z'

loop_
_atom_site_label
_atom_site_type_symbol
_atom_site_fract_x
_atom_site_fract_y
_atom_site_fract_z
_atom_site_charge
H          H       0.55241   0.08553   0.96514   0.10093
H          H       0.45251   0.08570   0.02257   0.10125
H          H       0.05385   0.58372   0.96689   0.10327
H          H       0.95412   0.58386   0.02637   0.10122
H          H       0.45342   0.91682   0.05230   0.10309
H          H       0.54505   0.91524   0.96068   0.10156
H          H       0.94935   0.41390   0.02952   0.10070
H          H       0.04277   0.41311   0.94685   0.10187
H          H       0.23629   0.07059   0.26847   0.10062
H          H       0.76261   0.06069   0.71395   0.10169
H          H       0.73678   0.56810   0.26518   0.10056
H          H       0.26878   0.56043   0.73128   0.10310
H          H       0.75880   0.93116   0.71647   0.09942
H          H       0.23765   0.94188   0.28810   0.10149
H          H       0.26179   0.42812   0.72121   0.10045
H          H       0.73439   0.43847   0.27062   0.10447
H          H       0.38485   0.14706   0.98877   0.09570
H          H       0.62906   0.15055   0.01128   0.09732
H          H       0.88719   0.64483   0.98979   0.09557
H          H       0.13164   0.64802   0.02609   0.09926
H          H       0.61497   0.85398   0.00381   0.09640
H          H       0.37719   0.85057   0.00723   0.09784
H          H       0.11260   0.35270   0.00105   0.09592
H          H       0.87546   0.34759   0.99214   0.09862
H          H       0.18445   0.15662   0.33698   0.11375
H          H       0.81990   0.14421   0.64136   0.11261
H          H       0.68586   0.65447   0.33600   0.11249
H          H       0.32716   0.64469   0.66582   0.11159
H          H       0.81007   0.84479   0.64332   0.11340
H          H       0.17830   0.85893   0.35942   0.11247
H          H       0.31210   0.34114   0.65107   0.11139
H          H       0.67632   0.35561   0.34387   0.11318
H          H       0.33591   0.23360   0.06662   0.11445
H          H       0.68135   0.23371   0.92562   0.11549
H          H       0.83910   0.73161   0.06965   0.11270
H          H       0.18442   0.73209   0.94654   0.11566
H          H       0.66302   0.76739   0.92092   0.11402
H          H       0.32383   0.76798   0.09446   0.11570
H          H       0.15915   0.26539   0.92077   0.11398
H          H       0.82267   0.26488   0.08085   0.11721
H          H       0.81756   0.56585   0.56140   0.10932
H          H       0.17679   0.58194   0.45587   0.10651
H          H       0.31832   0.06238   0.55964   0.10966
H          H       0.67547   0.07733   0.43416   0.10601
H          H       0.18130   0.43615   0.43867   0.10868
H          H       0.82334   0.42254   0.56598   0.10829
H          H       0.68332   0.93467   0.42949   0.10898
H          H       0.32672   0.92196   0.57993   0.10691
H          H       0.76095   0.65155   0.63900   0.11182
H          H       0.22877   0.66737   0.37572   0.11215
H          H       0.25996   0.14707   0.64036   0.11167
H          H       0.72742   0.16245   0.35219   0.11171
H          H       0.23781   0.35120   0.35574   0.11123
H          H       0.77196   0.33742   0.64824   0.11182
H          H       0.73971   0.84993   0.34457   0.11171
H          H       0.27585   0.83825   0.67060   0.11282
H          H       0.99330   0.72382   0.78748   0.10792
H          H       0.99384   0.71812   0.26791   0.10423
H          H       0.49113   0.22228   0.77807   0.10689
H          H       0.49331   0.21574   0.26289   0.10613
H          H       0.00529   0.27931   0.20421   0.10680
H          H       0.00497   0.28224   0.72121   0.10476
H          H       0.50758   0.77555   0.21737   0.10655
H          H       0.50827   0.78154   0.73574   0.10585
H          H       0.04955   0.63915   0.71299   0.10822
H          H       0.94241   0.63386   0.34633   0.10859
H          H       0.54887   0.13840   0.70050   0.10841
H          H       0.44208   0.13211   0.34419   0.10892
H          H       0.94948   0.36314   0.28732   0.10745
H          H       0.05604   0.36620   0.64157   0.10819
H          H       0.45186   0.85914   0.30164   0.10681
H          H       0.55875   0.86466   0.64824   0.10781
H          H       0.88402   0.77863   0.78695   0.06289
H          H       0.10130   0.77758   0.23376   0.06238
H          H       0.38201   0.27514   0.78837   0.06183
H          H       0.60032   0.27425   0.22222   0.06374
H          H       0.11323   0.22454   0.20017   0.06228
H          H       0.89844   0.22359   0.76148   0.06297
H          H       0.61549   0.72213   0.20110   0.06315
H          H       0.40302   0.72388   0.78124   0.06132
H          H       0.25525   0.00131   0.14603   0.10019
H          H       0.74746  -0.00025   0.85938   0.10146
H          H       0.75439   0.49917   0.13804   0.10070
H          H       0.24988   0.49757   0.86791   0.10225
H          H       0.59649   0.00143   0.31829   0.10786
H          H       0.40563   0.99617   0.68189   0.10654
H          H       0.09609   0.50506   0.32123   0.10972
H          H       0.90236   0.49702   0.67880   0.10832
C          C       0.58000   0.04806   0.95304  -0.17884
C          C       0.42360   0.04850   0.04208  -0.18260
C          C       0.08099   0.54611   0.95378  -0.18422
C          C       0.92387   0.54641   0.03913  -0.17986
C          C       0.42381   0.95372   0.05704  -0.18372
C          C       0.57619   0.95271   0.95171  -0.18144
C          C       0.92097   0.45107   0.04070  -0.17919
C          C       0.07503   0.45061   0.94366  -0.18296
C          C       0.34984   0.95321   0.10271   0.07386
C          C       0.65002   0.95140   0.90563   0.07172
C          C       0.84734   0.45042   0.08789   0.07313
C          C       0.15005   0.44930   0.90340   0.07396
C          C       0.65367   0.04844   0.90592   0.07257
C          C       0.35026   0.04991   0.09054   0.07275
C          C       0.15589   0.54655   0.91228   0.07398
C          C       0.85024   0.54758   0.08595   0.07269
C          C       0.31471   0.10118   0.12173   0.04852
C          C       0.69129   0.09855   0.86926   0.05102
C          C       0.81577   0.59895   0.12016   0.04948
C          C       0.19518   0.59713   0.88337   0.05132
C          C       0.68375   0.90003   0.86866   0.04915
C          C       0.31233   0.90332   0.14145   0.04933
C          C       0.18361   0.39774   0.86820   0.05136
C          C       0.80964   0.40024   0.12472   0.05310
C          C       0.25701   0.10562   0.21858  -0.12759
C          C       0.74652   0.09840   0.76635  -0.12878
C          C       0.75805   0.60331   0.21692  -0.12805
C          C       0.25212   0.59786   0.78436  -0.13067
C          C       0.73946   0.89590   0.76726  -0.12563
C          C       0.25492   0.90396   0.23950  -0.12672
C          C       0.24085   0.39304   0.77051  -0.12922
C          C       0.75218   0.40065   0.22267  -0.13484
C          C       0.25576   0.20138   0.20444   0.20443
C          C       0.75535   0.19507   0.78087   0.20450
C          C       0.75790   0.69916   0.20471   0.20289
C          C       0.26034   0.69463   0.80346   0.20050
C          C       0.74122   0.80025   0.78051   0.20802
C          C       0.24620   0.80735   0.22952   0.20216
C          C       0.24003   0.29721   0.78362   0.20349
C          C       0.74472   0.30410   0.21483   0.20031
C          C       0.34155   0.14847   0.06642  -0.12081
C          C       0.66971   0.14846   0.92795  -0.12155
C          C       0.84346   0.64629   0.06651  -0.12075
C          C       0.17317   0.64663   0.94442  -0.12165
C          C       0.65733   0.85265   0.92406  -0.12040
C          C       0.33506   0.85313   0.08745  -0.11886
C          C       0.15558   0.35068   0.92273  -0.12355
C          C       0.83288   0.35008   0.07141  -0.11976
C          C       0.22736   0.15434   0.25823  -0.18473
C          C       0.77892   0.14550   0.72432  -0.18503
C          C       0.72894   0.65211   0.25760  -0.18192
C          C       0.28508   0.64542   0.74652  -0.18271
C          C       0.76844   0.84725   0.72480  -0.18616
C          C       0.22135   0.85716   0.28089  -0.18439
C          C       0.26924   0.34401   0.72986  -0.18074
C          C       0.71932   0.35382   0.26527  -0.18190
C          C       0.31420   0.19750   0.10941  -0.16123
C          C       0.69928   0.19549   0.88160  -0.16070
C          C       0.81671   0.69536   0.11065  -0.15925
C          C       0.20321   0.69418   0.90189  -0.15904
C          C       0.68395   0.80374   0.87820  -0.16336
C          C       0.30462   0.80637   0.13412  -0.15967
C          C       0.18167   0.30138   0.87865  -0.15923
C          C       0.80310   0.30330   0.11930  -0.15967
C          C       0.02666   0.55118   0.45970   0.02924
C          C       0.96958   0.54859   0.55967   0.02954
C          C       0.52699   0.04856   0.45380   0.03208
C          C       0.47049   0.04657   0.55519   0.02752
C          C       0.97201   0.45074   0.54093   0.03098
C          C       0.02906   0.45336   0.44077   0.03067
C          C       0.47468   0.94883   0.54563   0.03145
C          C       0.53123   0.95077   0.44386   0.02910
C          C       0.93737   0.59708   0.62597   0.07976
C          C       0.05590   0.60170   0.40786   0.07965
C          C       0.43748   0.09504   0.61939   0.08361
C          C       0.55524   0.09861   0.39776   0.07964
C          C       0.06152   0.40508   0.37374   0.08238
C          C       0.94325   0.40038   0.59423   0.08270
C          C       0.56371   0.90240   0.37713   0.08142
C          C       0.44629   0.89922   0.60404   0.07970
C          C       0.85572   0.60053   0.61215  -0.13026
C          C       0.13686   0.61156   0.41241  -0.12969
C          C       0.35581   0.09752   0.60850  -0.13238
C          C       0.63574   0.10758   0.39507  -0.12855
C          C       0.14309   0.40166   0.38653  -0.13051
C          C       0.86308   0.39183   0.60081  -0.13372
C          C       0.64506   0.89969   0.38253  -0.13065
C          C       0.36650   0.89134   0.61542  -0.13024
C          C       0.82388   0.64805   0.65339  -0.10187
C          C       0.16629   0.65923   0.36970  -0.10407
C          C       0.32298   0.14454   0.65148  -0.09970
C          C       0.66518   0.15502   0.35112  -0.10307
C          C       0.17486   0.35439   0.34196  -0.09975
C          C       0.83386   0.34439   0.64515  -0.10061
C          C       0.67686   0.85256   0.33671  -0.10114
C          C       0.33758   0.84453   0.66438  -0.10014
C          C       0.87299   0.69369   0.71168   0.05133
C          C       0.11542   0.69873   0.31862   0.04634
C          C       0.37120   0.19070   0.70832   0.04828
C          C       0.61467   0.19531   0.30563   0.04956
C          C       0.12581   0.30894   0.28103   0.04818
C          C       0.88416   0.30356   0.68600   0.04886
C          C       0.62801   0.80654   0.28147   0.04851
C          C       0.38787   0.80364   0.70525   0.04793
C          C       0.95458   0.68929   0.73717  -0.13106
C          C       0.03437   0.68844   0.30925  -0.13192
C          C       0.45300   0.18732   0.72944  -0.12796
C          C       0.53380   0.18570   0.30127  -0.13549
C          C       0.04417   0.31345   0.25722  -0.12974
C          C       0.96465   0.31268   0.68598  -0.13470
C          C       0.54643   0.81025   0.26509  -0.12859
C          C       0.46810   0.81215   0.70071  -0.13449
C          C       0.98636   0.64161   0.69567  -0.12750
C          C       0.00512   0.64075   0.35335  -0.12228
C          C       0.48567   0.14017   0.68634  -0.12858
C          C       0.50462   0.13825   0.34700  -0.12068
C          C       0.01259   0.36075   0.30282  -0.13108
C          C       0.99369   0.36021   0.64084  -0.12068
C          C       0.51487   0.85738   0.31196  -0.12880
C          C       0.49670   0.85908   0.65099  -0.12060
C          C       0.84110   0.74470   0.74859   0.07475
C          C       0.14525   0.74903   0.27276   0.07599
C          C       0.33899   0.24132   0.74859   0.07486
C          C       0.64440   0.24566   0.26000   0.07281
C          C       0.15698   0.25794   0.23988   0.07731
C          C       0.85470   0.25307   0.73076   0.07238
C          C       0.65915   0.75563   0.23988   0.07204
C          C       0.35898   0.75332   0.75243   0.07273
C          C       0.54040   0.00066   0.97816   0.07456
C          C       0.46144   0.00088   0.02418   0.07709
C          C       0.03968   0.49855   0.97180   0.07799
C          C       0.96024   0.49860   0.01514   0.07341
C          C       0.31355   0.00155   0.11614  -0.18978
C          C       0.68877  -0.00015   0.88755  -0.18933
C          C       0.81236   0.49908   0.10667  -0.19058
C          C       0.19038   0.49779   0.89165  -0.19300
C          C       0.55609   0.00045   0.40225  -0.17443
C          C       0.44575   0.99700   0.59732  -0.17094
C          C       0.05510   0.50339   0.40389  -0.17315
C          C       0.94340   0.49858   0.59623  -0.17397
N          N       0.23078   0.25193   0.24409  -0.28487
N          N       0.78180   0.24411   0.73920  -0.28016
N          N       0.73298   0.74973   0.24380  -0.28132
N          N       0.28639   0.74402   0.76325  -0.28091
N          N       0.76702   0.74990   0.74254  -0.28486
N          N       0.21884   0.75871   0.27239  -0.27929
N          N       0.26501   0.24666   0.74429  -0.28442
N          N       0.71789   0.25539   0.25814  -0.27845

