data_crystal

_audit_creation_method 'AiiDA-DDEC plugin'

_cell_length_a        41.07341
_cell_length_b         4.76130
_cell_length_c        37.08406

_cell_angle_alpha     89.79388
_cell_angle_beta     90.18743
_cell_angle_gamma     89.95552

_symmetry_space_group_name_Hall 'P 1'
_symmetry_space_group_name_H-M  'P 1'

loop_
_symmetry_equiv_pos_as_xyz
 'x,y,z'

loop_
_atom_site_label
_atom_site_type_symbol
_atom_site_fract_x
_atom_site_fract_y
_atom_site_fract_z
_atom_site_charge
H          H       0.90781   0.48561   0.33229   0.10904
H          H       0.09357   0.48909   0.17122   0.11099
H          H       0.40813  -0.00683   0.33057   0.10908
H          H       0.59230   0.98503   0.16858   0.10804
H          H       0.09089   0.51211   0.66726   0.10826
H          H       0.90794   0.51758   0.83074   0.10799
H          H       0.59145   0.00765   0.67031   0.10847
H          H       0.40753   0.00595   0.83325   0.10836
H          H       0.54726   0.65849   0.31518   0.08779
H          H       0.45363   0.65146   0.18284   0.08728
H          H       0.04595   0.16405   0.31667   0.08682
H          H       0.95443   0.15611   0.18472   0.08776
H          H       0.45236   0.34995   0.68474   0.08731
H          H       0.54604   0.33586   0.81669   0.08748
H          H       0.95257   0.83399   0.68380   0.08704
H          H       0.04704   0.84487   0.81535   0.08785
H          H       0.98048   0.89621   0.36695   0.10297
H          H       0.02132   0.89559   0.13738   0.10245
H          H       0.47993   0.39485   0.36495   0.10431
H          H       0.52024   0.38956   0.13480   0.10290
H          H       0.01834   0.10455   0.63328   0.10275
H          H       0.98063   0.10979   0.86372   0.10343
H          H       0.51951   0.60711   0.63660   0.10381
H          H       0.47980   0.59977   0.86667   0.10389
H          H       0.86514   0.19901   0.36237   0.12500
H          H       0.13641   0.20581   0.14100   0.12495
H          H       0.36505   0.71269   0.36106   0.12442
H          H       0.63523   0.70290   0.13825   0.12478
H          H       0.13352   0.79580   0.63658   0.12456
H          H       0.86547   0.80019   0.86172   0.12440
H          H       0.63436   0.28802   0.63951   0.12491
H          H       0.36478   0.28739   0.86407   0.12417
H          H       0.55622   0.99239   0.39317   0.10390
H          H       0.44409  -0.00469   0.10428   0.10371
H          H       0.05589   0.50766   0.39576   0.10370
H          H       0.94531   0.50102   0.10599   0.10436
H          H       0.44296   0.01034   0.60615   0.10448
H          H       0.55633  -0.00108   0.89420   0.10313
H          H       0.94335   0.49121   0.60462   0.10378
H          H       0.05610   0.50621   0.89331   0.10328
H          H       0.59963   0.25705   0.42311   0.12392
H          H       0.40042   0.26377   0.07504   0.12438
H          H       0.09925   0.77741   0.42486   0.12379
H          H       0.90200   0.77100   0.07629   0.12418
H          H       0.39957   0.74259   0.57651   0.12386
H          H       0.60010   0.73236   0.92338   0.12489
H          H       0.90029   0.22240   0.57501   0.12461
H          H       0.09971   0.24192   0.92295   0.12460
H          H       0.93874   0.62410   0.40037   0.10142
H          H       0.06312   0.62937   0.10347   0.10449
H          H       0.43786   0.13029   0.39895   0.10063
H          H       0.56210   0.12530   0.10062   0.10146
H          H       0.06002   0.37485   0.59942   0.10133
H          H       0.93918   0.37747   0.89801   0.10065
H          H       0.56139   0.87173   0.60229   0.10072
H          H       0.43807   0.86713   0.90077   0.10097
H          H       0.59570   0.88110   0.33887   0.10666
H          H       0.40532   0.88048   0.15951   0.10578
H          H       0.09408   0.39488   0.33985   0.10639
H          H       0.90625   0.38591   0.16108   0.10620
H          H       0.40398   0.12239   0.66125   0.10629
H          H       0.59515   0.11407   0.83901   0.10731
H          H       0.90474   0.60459   0.66003   0.10590
H          H       0.09548   0.62070   0.83891   0.10930
H          H       0.25283   0.72626   0.93401   0.11588
H          H       0.74708   0.70866   0.56639   0.11492
H          H       0.75500   0.23863   0.93400   0.11549
H          H       0.24541   0.23820   0.56640   0.11538
H          H       0.74857   0.28465   0.06618   0.11500
H          H       0.25273   0.28413   0.43424   0.11585
H          H       0.24702   0.77818   0.06619   0.11563
H          H       0.75322   0.76503   0.43419   0.11563
H          H       0.23192   0.33994   0.06372   0.10271
H          H       0.76880   0.32727   0.43588   0.10303
H          H       0.73219   0.84795   0.06440   0.10403
H          H       0.26806   0.84792   0.43588   0.10351
H          H       0.77010   0.67782   0.93591   0.10293
H          H       0.22987   0.67434   0.56500   0.10336
H          H       0.26848   0.16768   0.93482   0.10390
H          H       0.73108   0.14662   0.56421   0.10338
H          H       0.18678   0.62665   0.09150   0.10881
H          H       0.81460   0.61713   0.40982   0.10891
H          H       0.68596   0.13043   0.09066   0.10873
H          H       0.31382   0.13365   0.40903   0.10923
H          H       0.81546   0.38500   0.90950   0.11070
H          H       0.18396   0.38085   0.59009   0.10832
H          H       0.31439   0.87481   0.90975   0.10897
H          H       0.68519   0.86360   0.59131   0.10865
H          H       0.11701   0.05368   0.04644   0.10564
H          H       0.88339   0.04419   0.45757   0.10637
H          H       0.61796   0.55405   0.04309   0.10628
H          H       0.38261   0.55903   0.45622   0.10572
H          H       0.88513   0.94988   0.95639   0.10575
H          H       0.11530   0.95102   0.54171   0.10598
H          H       0.38312   0.43441   0.95935   0.10659
H          H       0.61667   0.44454   0.54487   0.10571
H          H       0.16173   0.79102   0.01583   0.11220
H          H       0.83791   0.77959   0.48656   0.11173
H          H       0.66374   0.29487   0.01408   0.11129
H          H       0.33727   0.29647   0.48577   0.11192
H          H       0.84020   0.21714   0.98585   0.11211
H          H       0.16088   0.21872   0.51342   0.11180
H          H       0.33750   0.70204   0.98744   0.11127
H          H       0.66211   0.70501   0.51514   0.11173
H          H       0.28951   0.69509   0.09117   0.10488
H          H       0.71040   0.69035   0.40913   0.10614
H          H       0.79154   0.20731   0.09109   0.10519
H          H       0.20970   0.20942   0.40910   0.10303
H          H       0.71124   0.30343   0.90949   0.10647
H          H       0.28853   0.31220   0.59153   0.10531
H          H       0.21040   0.80562   0.90895   0.10297
H          H       0.78958   0.78932   0.59150   0.10547
H          H       0.32839   0.42347   0.12887   0.10525
H          H       0.67209   0.41976   0.37093   0.10523
H          H       0.82941   0.93148   0.12954   0.10495
H          H       0.17137   0.93767   0.37100   0.10538
H          H       0.67241   0.57139   0.87120   0.10542
H          H       0.32700   0.58367   0.62951   0.10472
H          H       0.17257   0.08127   0.87047   0.10505
H          H       0.82792   0.06187   0.62947   0.10450
H          H       0.34029   0.82417   0.04385   0.10175
H          H       0.65921   0.81763   0.45599   0.10294
H          H       0.84249   0.33575   0.04423   0.10304
H          H       0.15883   0.33636   0.45623   0.10205
H          H       0.66035   0.17917   0.95524   0.10250
H          H       0.33952   0.18490   0.54433   0.10344
H          H       0.15915   0.67670   0.95565   0.10311
H          H       0.84026   0.66247   0.54414   0.10267
H          H       0.29966   0.08576   0.00632   0.09961
H          H       0.69934   0.07738   0.49398   0.10028
H          H       0.80224   0.59746   0.00640   0.10006
H          H       0.19926   0.59563   0.49391   0.09946
H          H       0.70147   0.92442   0.99294   0.09998
H          H       0.29932   0.92409   0.50651   0.09971
H          H       0.19930   0.41450   0.99369   0.10019
H          H       0.79988   0.40177   0.50650   0.09947
H          H       0.09827   0.47428   0.07533   0.06584
H          H       0.90279   0.46602   0.42884   0.06994
H          H       0.59804   0.97366   0.07189   0.06672
H          H       0.40203   0.97868   0.42737   0.06647
H          H       0.90384   0.52798   0.92762   0.06750
H          H       0.09590   0.52871   0.57030   0.06675
H          H       0.40236   0.01413   0.93047   0.06724
H          H       0.59707   0.02382   0.57350   0.06645
H          H       0.36201   0.00199   0.13862   0.06965
H          H       0.63909  -0.00168   0.36044   0.07039
H          H       0.86280   0.50763   0.13971   0.06987
H          H       0.13788   0.51587   0.36099   0.07026
H          H       0.63860   0.98945   0.86060   0.06976
H          H       0.36036   0.00323   0.63965   0.06933
H          H       0.13904   0.50230   0.86015   0.07011
H          H       0.86152   0.48477   0.63913   0.07035
H          H       0.42132   0.01302   0.77942   0.14170
H          H       0.57528   0.97902   0.72441   0.14277
H          H       0.92302   0.48175   0.77691   0.14283
H          H       0.07598   0.49448   0.72110   0.14259
H          H       0.57653   0.01430   0.22225   0.14291
H          H       0.42298  -0.00354   0.27687   0.14103
H          H       0.07722   0.51588   0.22472   0.14310
H          H       0.92280   0.49501   0.27878   0.14216
H          H       0.44174   0.15727   0.74218   0.12568
H          H       0.55592   0.14015   0.76090   0.12597
H          H       0.94202   0.64028   0.73985   0.12710
H          H       0.05644   0.65046   0.75792   0.12599
H          H       0.55722   0.85343   0.25895   0.12588
H          H       0.44296   0.84472   0.24003   0.12576
H          H       0.05745   0.36038   0.26152   0.12685
H          H       0.94316   0.34847   0.24182   0.12637
H          H       0.42948   0.37690   0.77844   0.14344
H          H       0.57060   0.34795   0.72442   0.14449
H          H       0.92789   0.85040   0.77623   0.14387
H          H       0.06983   0.86164   0.72109   0.14447
H          H       0.57164   0.64561   0.22250   0.14373
H          H       0.42980   0.63021   0.27659   0.14367
H          H       0.07175   0.14818   0.22548   0.14379
H          H       0.93015   0.12974   0.27802   0.14369
H          H       0.53836   0.67577   0.74075   0.14002
H          H       0.45481   0.70764   0.76015   0.13698
H          H       0.04104   0.18976   0.73941   0.13861
H          H       0.95899   0.17851   0.75911   0.13897
H          H       0.45732   0.29969   0.25849   0.13825
H          H       0.54043   0.31639   0.23936   0.13956
H          H       0.95686   0.80029   0.26011   0.13763
H          H       0.04032   0.82019   0.24133   0.13957
H          H       0.52602   0.42699   0.77341   0.11061
H          H       0.46863   0.45003   0.72977   0.11613
H          H       0.02828   0.93724   0.77129   0.11260
H          H       0.97148   0.92784   0.72702   0.11153
H          H       0.47070   0.55549   0.22736   0.11488
H          H       0.52816   0.56620   0.27168   0.11170
H          H       0.97098   0.05729   0.22957   0.11499
H          H       0.02763   0.07121   0.27320   0.11186
H          H       0.56427   0.59878   0.77838   0.13939
H          H       0.43108   0.62512   0.72117   0.14078
H          H       0.06624   0.11176   0.77750   0.14007
H          H       0.93342   0.10200   0.72128   0.13889
H          H       0.43296   0.38074   0.21985   0.14020
H          H       0.56614   0.39001   0.27717   0.13975
H          H       0.93328   0.88533   0.22098   0.14018
H          H       0.06572   0.89782   0.27926   0.14021
H          H       0.48225   0.24569   0.60533   0.14466
H          H       0.51791   0.23317   0.89609   0.14461
H          H       0.98029   0.73757   0.60380   0.14479
H          H       0.01819   0.74876   0.89385   0.14494
H          H       0.51709   0.75848   0.39504   0.14576
H          H       0.48233   0.75586   0.10388   0.14652
H          H       0.01852   0.26248   0.39631   0.14506
H          H       0.98380   0.26208   0.10582   0.14441
H          H       0.49306   0.88696   0.59994   0.13947
H          H       0.50643   0.87655   0.90223   0.13947
H          H       0.99275   0.38377   0.59754   0.14023
H          H       0.00663   0.39271   0.90048   0.13998
H          H       0.50684   0.11819   0.40047   0.13992
H          H       0.49450   0.11094   0.09783   0.13965
H          H       0.00596   0.61589   0.40278   0.13994
H          H       0.99578   0.61768   0.09993   0.13956
H          H       0.52341   0.14812   0.60490   0.13035
H          H       0.47661   0.14319   0.89764   0.13140
H          H       0.02183   0.65485   0.60261   0.13025
H          H       0.97689   0.65871   0.89520   0.12928
H          H       0.47613   0.86014   0.39584   0.12995
H          H       0.52380   0.84114   0.10322   0.13223
H          H       0.97695   0.34426   0.39765   0.13095
H          H       0.02523   0.34903   0.10540   0.12961
C          C       0.54932   0.28863   0.34884   0.06613
C          C       0.45108   0.28518   0.14902   0.06552
C          C       0.04856   0.79849   0.35091   0.06622
C          C       0.95204   0.79060   0.15075   0.06498
C          C       0.44982   0.71747   0.65081   0.06509
C          C       0.54875   0.70487   0.85004   0.06608
C          C       0.95040   0.20049   0.64948   0.06553
C          C       0.04926   0.21400   0.84881   0.06623
C          C       0.94720   0.20467   0.34705   0.07329
C          C       0.05432   0.20733   0.15661   0.07176
C          C       0.44704   0.70750   0.34529   0.07365
C          C       0.55322   0.70156   0.15403   0.07169
C          C       0.05162   0.79477   0.65282   0.07174
C          C       0.94725   0.79991   0.84468   0.07178
C          C       0.55245   0.29319   0.65580   0.07268
C          C       0.44662   0.28965   0.84747   0.07282
C          C       0.91487   0.30050   0.34751  -0.12393
C          C       0.08660   0.30451   0.15604  -0.12543
C          C       0.41492   0.80832   0.34597  -0.12339
C          C       0.58541   0.80065   0.15333  -0.12239
C          C       0.08385   0.69682   0.65198  -0.12290
C          C       0.91503   0.70228   0.84581  -0.12341
C          C       0.58457   0.19236   0.65494  -0.12388
C          C       0.41447   0.19050   0.84844  -0.12162
C          C       0.89833   0.89043   0.38322   0.18790
C          C       0.10334   0.89644   0.12039   0.18813
C          C       0.39784   0.40019   0.38163   0.18723
C          C       0.60224   0.39362   0.11763   0.18793
C          C       0.10036   0.10609   0.61618   0.18723
C          C       0.89877   0.11015   0.88167   0.18790
C          C       0.60147   0.60061   0.61915   0.18697
C          C       0.39789   0.59730   0.88427   0.18859
C          C       0.56000   0.55329   0.33683  -0.14230
C          C       0.44071   0.54957   0.16118  -0.14233
C          C       0.05886   0.06305   0.33850  -0.14343
C          C       0.94163   0.05501   0.16289  -0.14286
C          C       0.43944   0.45250   0.66298  -0.14137
C          C       0.55922   0.44045   0.83794  -0.14086
C          C       0.93994   0.93614   0.66187  -0.14188
C          C       0.05985   0.94939   0.83688  -0.14214
C          C       0.95501   0.95939   0.36603  -0.13915
C          C       0.04671   0.96122   0.13798  -0.13807
C          C       0.45457   0.46168   0.36425  -0.13807
C          C       0.54561   0.45580   0.13533  -0.13951
C          C       0.04379   0.04033   0.63393  -0.13878
C          C       0.95520   0.04521   0.86332  -0.13770
C          C       0.54487   0.54004   0.63708  -0.13853
C          C       0.45441   0.53440   0.86626  -0.13893
C          C       0.89062   0.14153   0.36506  -0.16153
C          C       0.11096   0.14712   0.13842  -0.15990
C          C       0.39044   0.65219   0.36358  -0.16079
C          C       0.60978   0.64419   0.13570  -0.16072
C          C       0.10806   0.85449   0.63419  -0.16045
C          C       0.89093   0.85936   0.86379  -0.16104
C          C       0.60895   0.34857   0.63716  -0.16057
C          C       0.39023   0.34659   0.86630  -0.16218
C          C       0.56501   0.17974   0.38007  -0.12598
C          C       0.43532   0.18061   0.11772  -0.12502
C          C       0.06442   0.69414   0.38227  -0.12571
C          C       0.93648   0.68672   0.11930  -0.12550
C          C       0.43420   0.82363   0.61943  -0.12501
C          C       0.56498   0.81268   0.88089  -0.12508
C          C       0.93471   0.30481   0.61801  -0.12619
C          C       0.06498   0.32054   0.88006  -0.12591
C          C       0.60185   0.58390   0.38338   0.18867
C          C       0.39861   0.58682   0.11501   0.18907
C          C       0.10099   0.10078   0.38461   0.18868
C          C       0.89982   0.09338   0.11639   0.18934
C          C       0.39752   0.41784   0.61655   0.18957
C          C       0.60184   0.40751   0.88360   0.18969
C          C       0.89820   0.89849   0.61526   0.18948
C          C       0.10189   0.91609   0.88326   0.18982
C          C       0.59019   0.32886   0.39730  -0.16601
C          C       0.41007   0.33259   0.10082  -0.16741
C          C       0.08961   0.84624   0.39901  -0.16617
C          C       0.91138   0.83927   0.10221  -0.16601
C          C       0.40908   0.67245   0.60236  -0.16590
C          C       0.59038   0.66207   0.89769  -0.16798
C          C       0.90967   0.15302   0.60097  -0.16590
C          C       0.09024   0.17052   0.89720  -0.16710
C          C       0.93150   0.80272   0.38407  -0.17373
C          C       0.07027   0.80672   0.11984  -0.17686
C          C       0.43086   0.30820   0.38241  -0.17208
C          C       0.56920   0.30249   0.11706  -0.17242
C          C       0.06725   0.19586   0.61566  -0.17249
C          C       0.93186   0.19972   0.88180  -0.17320
C          C       0.56846   0.69331   0.61871  -0.17164
C          C       0.43094   0.68830   0.88463  -0.17376
C          C       0.58640   0.69449   0.35205  -0.17162
C          C       0.41437   0.69409   0.14622  -0.17191
C          C       0.08515   0.20812   0.35332  -0.17165
C          C       0.91537   0.19982   0.14779  -0.17260
C          C       0.41312   0.30894   0.64792  -0.17295
C          C       0.58592   0.29860   0.85257  -0.17177
C          C       0.91376   0.79164   0.64673  -0.17397
C          C       0.08626   0.80692   0.85208  -0.17442
C          C       0.22715   0.91007   0.97864   0.02838
C          C       0.77259   0.89568   0.52177   0.02914
C          C       0.72897   0.41773   0.97861   0.02867
C          C       0.27157   0.41946   0.52179   0.02869
C          C       0.77439   0.10261   0.02157   0.02823
C          C       0.22666   0.10173   0.47880   0.02919
C          C       0.27236   0.59202   0.02155   0.02781
C          C       0.72734   0.58132   0.47880   0.02822
C          C       0.25058   0.73304   0.96314  -0.17394
C          C       0.74918   0.71807   0.53725  -0.17370
C          C       0.75271   0.24392   0.96312  -0.17412
C          C       0.24788   0.24408   0.53727  -0.17343
C          C       0.75079   0.27809   0.03704  -0.17344
C          C       0.25027   0.27760   0.46335  -0.17461
C          C       0.24909   0.77022   0.03706  -0.17243
C          C       0.75091   0.75762   0.46332  -0.17384
C          C       0.27344   0.58178   0.98316   0.03684
C          C       0.72617   0.56971   0.51721   0.03867
C          C       0.77569   0.09409   0.98317   0.03763
C          C       0.22510   0.09323   0.51720   0.03675
C          C       0.72773   0.42756   0.01700   0.03754
C          C       0.27307   0.42826   0.48339   0.03725
C          C       0.22611   0.92060   0.01705   0.03737
C          C       0.77379   0.90719   0.48337   0.03731
C          C       0.29307   0.41797   0.04494   0.05750
C          C       0.70656   0.41022   0.45528   0.05931
C          C       0.79514   0.92906   0.04503   0.05918
C          C       0.20605   0.92925   0.45525   0.05842
C          C       0.70789   0.58739   0.95501   0.05883
C          C       0.29230   0.59143   0.54528   0.05807
C          C       0.20646   0.08309   0.95507   0.05880
C          C       0.79323   0.06826   0.54522   0.05720
C          C       0.19952   0.05931   0.03709   0.07987
C          C       0.80061   0.04615   0.46369   0.08028
C          C       0.70074   0.56438   0.03665   0.07909
C          C       0.29991   0.56578   0.46350   0.08151
C          C       0.80240   0.95520   0.96339   0.07996
C          C       0.19816   0.95408   0.53666   0.08002
C          C       0.30023   0.44221   0.96368   0.08037
C          C       0.69933   0.43259   0.53711   0.07831
C          C       0.20659   0.28634   0.05945  -0.15938
C          C       0.79403   0.27402   0.44105  -0.15834
C          C       0.70704   0.79176   0.05924  -0.15826
C          C       0.29328   0.79325   0.44082  -0.15827
C          C       0.79542   0.72918   0.94079  -0.15827
C          C       0.20468   0.72650   0.55939  -0.15716
C          C       0.29367   0.21750   0.94071  -0.15807
C          C       0.70588   0.20371   0.55957  -0.15739
C          C       0.18179   0.44540   0.07464  -0.09856
C          C       0.81919   0.43462   0.42679  -0.10020
C          C       0.68166   0.94887   0.07363  -0.09926
C          C       0.31841   0.95174   0.42609  -0.09935
C          C       0.82030   0.56728   0.92625  -0.10170
C          C       0.17949   0.56409   0.57322  -0.10082
C          C       0.31886   0.05525   0.92695  -0.10098
C          C       0.68069   0.04631   0.57435  -0.09872
C          C       0.14898   0.36047   0.06999   0.04449
C          C       0.85193   0.35067   0.43264   0.04575
C          C       0.64905   0.86202   0.06787   0.04582
C          C       0.35112   0.86581   0.43155   0.04424
C          C       0.85315   0.64796   0.93180   0.04451
C          C       0.14676   0.64607   0.56690   0.04533
C          C       0.35159   0.13412   0.93367   0.04603
C          C       0.64803   0.13474   0.56911   0.04471
C          C       0.14218   0.11645   0.05037  -0.11349
C          C       0.85831   0.10611   0.45259  -0.11249
C          C       0.64296   0.61801   0.04801  -0.11479
C          C       0.35751   0.62148   0.45150  -0.11129
C          C       0.85992   0.89088   0.95165  -0.11276
C          C       0.14039   0.89068   0.54699  -0.11308
C          C       0.35803   0.37626   0.95379  -0.11362
C          C       0.64174   0.38028   0.54936  -0.11391
C          C       0.16727   0.96480   0.03369  -0.12429
C          C       0.83282   0.95326   0.46836  -0.12487
C          C       0.66864   0.46816   0.03222  -0.12296
C          C       0.33208   0.47022   0.46763  -0.12582
C          C       0.83474   0.04496   0.96773  -0.12405
C          C       0.16593   0.04495   0.53158  -0.12360
C          C       0.33250   0.53066   0.96904  -0.12332
C          C       0.66724   0.53053   0.53318  -0.12334
C          C       0.30114   0.51000   0.08012  -0.12197
C          C       0.69878   0.50417   0.42001  -0.12419
C          C       0.80298   0.02036   0.08030  -0.12513
C          C       0.19818   0.02279   0.42000  -0.12103
C          C       0.69965   0.49026   0.92010  -0.12524
C          C       0.30017   0.49806   0.58056  -0.12342
C          C       0.19879   0.99168   0.91976  -0.12272
C          C       0.80115   0.97530   0.58049  -0.12340
C          C       0.32283   0.35468   0.10164  -0.12643
C          C       0.67739   0.34954   0.39822  -0.12591
C          C       0.82430   0.86366   0.10214  -0.12438
C          C       0.17672   0.86796   0.39831  -0.12611
C          C       0.67795   0.64326   0.89830  -0.12417
C          C       0.32167   0.65295   0.60219  -0.12609
C          C       0.17757   0.14865   0.89787  -0.12430
C          C       0.82263   0.13062   0.60210  -0.12508
C          C       0.33691   0.10720   0.08864   0.05098
C          C       0.66323   0.10130   0.41103   0.05153
C          C       0.83855   0.61630   0.08927   0.04985
C          C       0.16254   0.62016   0.41126   0.05155
C          C       0.66384   0.89207   0.91082   0.04986
C          C       0.33586   0.90069   0.58925   0.05024
C          C       0.16331   0.39602   0.91067   0.04963
C          C       0.83673   0.37837   0.58903   0.04999
C          C       0.32784   0.00842   0.05405  -0.10484
C          C       0.67180   0.00178   0.44585  -0.10491
C          C       0.82999   0.51992   0.05439  -0.10452
C          C       0.17132   0.52074   0.44602  -0.10617
C          C       0.67289  -0.00524   0.94526  -0.10404
C          C       0.32711  -0.00002   0.55448  -0.10512
C          C       0.17172   0.49263   0.94557  -0.10371
C          C       0.82787   0.47742   0.55430  -0.10584
C          C       0.30587   0.16092   0.03303  -0.14094
C          C       0.69351   0.15352   0.46714  -0.14360
C          C       0.80819   0.67275   0.03316  -0.14350
C          C       0.19316   0.67213   0.46716  -0.14157
C          C       0.69502   0.84531   0.96649  -0.14303
C          C       0.30532   0.84797   0.53331  -0.14202
C          C       0.19339   0.33938   0.96690  -0.14280
C          C       0.80604   0.32548   0.53323  -0.14066
C          C       0.12278   0.52585   0.08503   0.06700
C          C       0.87846   0.51763   0.41842   0.06415
C          C       0.62235   0.02540   0.08222   0.06665
C          C       0.37768   0.03073   0.41705   0.06671
C          C       0.87940   0.47993   0.91732   0.06673
C          C       0.12022   0.47798   0.58083   0.06636
C          C       0.37807   0.96596   0.91979   0.06599
C          C       0.62145   0.97048   0.58365   0.06567
C          C       0.35991   0.94709   0.11001   0.06032
C          C       0.64064   0.94218   0.38914   0.05915
C          C       0.86118   0.45445   0.11099   0.06030
C          C       0.13971   0.46073   0.38969   0.06043
C          C       0.64074   0.04853   0.88909   0.06170
C          C       0.35867   0.05923   0.61096   0.06065
C          C       0.14072   0.55686   0.88882   0.05913
C          C       0.85963   0.53839   0.61038   0.06024
C          C       0.47104   0.11331   0.79041   0.09938
C          C       0.52695   0.11054   0.71230   0.09774
C          C       0.97155   0.61082   0.78805   0.09827
C          C       0.02704   0.61206   0.70972   0.09862
C          C       0.52811   0.88595   0.21044   0.09839
C          C       0.47214   0.88450   0.28841   0.09807
C          C       0.02863   0.39092   0.21280   0.09742
C          C       0.97212   0.38688   0.29032   0.09960
C          C       0.49791   0.00047   0.77145  -0.04186
C          C       0.49938   0.00390   0.73066  -0.04530
C          C       0.99871   0.50022   0.76939  -0.04314
C          C       0.00004   0.49895   0.72856  -0.04388
C          C       0.50077  -0.00456   0.22887  -0.04446
C          C       0.49925  -0.00364   0.26968  -0.04325
C          C       0.00103   0.49869   0.23093  -0.04447
C          C      -0.00079   0.49992   0.27169  -0.04410
C          C       0.52105   0.84329   0.79126   0.08705
C          C       0.47566   0.85914   0.71029   0.08669
C          C       0.02232   0.35126   0.78958   0.08603
C          C       0.97697   0.34343   0.70862   0.08740
C          C       0.47722   0.14385   0.20850   0.08578
C          C       0.52240   0.15049   0.28971   0.08635
C          C       0.97762   0.64696   0.21038   0.08582
C          C       0.02212   0.65614   0.29174   0.08896
C          C       0.47485   0.87600   0.67162  -0.06246
C          C       0.52310   0.86240   0.82989  -0.06307
C          C       0.97536   0.36210   0.66991  -0.06197
C          C       0.02397   0.37242   0.82820  -0.06260
C          C       0.52395   0.13159   0.32840  -0.06191
C          C       0.47609   0.12536   0.16983  -0.06154
C          C       0.02355   0.63764   0.33044  -0.06320
C          C       0.97693   0.63024   0.17171  -0.06143
C          C       0.49874   0.04323   0.65427   0.08773
C          C       0.50003   0.03355   0.84780   0.08895
C          C       0.99831   0.53682   0.65217   0.08916
C          C       0.00067   0.54465   0.84568   0.08860
C          C       0.50055   0.96180   0.34614   0.08869
C          C       0.49966   0.95511   0.15251   0.08896
C          C       0.00049   0.46356   0.34807   0.09083
C          C       0.00073   0.46117   0.15457   0.08935
C          C       0.52537   0.14651   0.67458  -0.06209
C          C       0.47323   0.14259   0.82812  -0.06416
C          C       0.02494   0.64577   0.67201  -0.06202
C          C       0.97385   0.64972   0.82566  -0.06293
C          C       0.47394   0.85399   0.32617  -0.06409
C          C       0.52631   0.84985   0.17277  -0.06221
C          C       0.97393   0.35466   0.32807  -0.06267
C          C       0.02723   0.35590   0.17509  -0.06164
C          C       0.43929   0.17109   0.77148  -0.43626
C          C       0.55882   0.15061   0.73165  -0.43611
C          C       0.93948   0.65211   0.76912  -0.43694
C          C       0.05894   0.66108   0.72862  -0.43604
C          C       0.56000   0.84347   0.22969  -0.43596
C          C       0.44037   0.83269   0.26932  -0.43473
C          C       0.06038   0.34789   0.23231  -0.43690
C          C       0.94046   0.33390   0.27108  -0.43711
C          C       0.53912   0.63270   0.76981  -0.41197
C          C       0.45577   0.65738   0.73136  -0.41606
C          C       0.04120   0.14394   0.76839  -0.41208
C          C       0.95852   0.13444   0.73011  -0.41139
C          C       0.45781   0.34835   0.22959  -0.41446
C          C       0.54100   0.35933   0.26838  -0.41212
C          C       0.95792   0.85062   0.23128  -0.41387
C          C       0.04067   0.86482   0.27031  -0.41326
C          C       0.49934   0.08157   0.61382  -0.43593
C          C       0.50032   0.07192   0.88822  -0.43773
C          C       0.99823   0.57875   0.61175  -0.43707
C          C       0.00067   0.58672   0.88607  -0.43613
C          C       0.50020   0.92431   0.38663  -0.43820
C          C       0.50003   0.91529   0.11209  -0.43989
C          C       0.00053   0.42115   0.38848  -0.43834
C          C       0.00137   0.42206   0.11415  -0.43534
N          N       0.62505   0.72846   0.40309  -0.28013
N          N       0.37522   0.73373   0.09574  -0.27997
N          N       0.12427   0.24725   0.40392  -0.28026
N          N       0.87666   0.24119   0.09689  -0.28042
N          N       0.37428   0.27263   0.59696  -0.28100
N          N       0.62535   0.26294   0.90297  -0.28281
N          N       0.87500   0.75139   0.59594  -0.27953
N          N       0.12519   0.77018   0.90280  -0.27986
N          N       0.87287   0.73376   0.39730  -0.28760
N          N       0.12873   0.74128   0.10593  -0.28811
N          N       0.37220   0.24641   0.39585  -0.28866
N          N       0.62781   0.23998   0.10338  -0.28784
N          N       0.12581   0.26219   0.60199  -0.28525
N          N       0.87349   0.26614   0.89616  -0.28659
N          N       0.62703   0.75447   0.60477  -0.28610
N          N       0.37244   0.75224   0.89854  -0.28557

