data_crystal

_audit_creation_method 'AiiDA-DDEC plugin'

_cell_length_a        37.30217
_cell_length_b        37.48732
_cell_length_c         8.27378

_cell_angle_alpha     111.84732
_cell_angle_beta     61.47532
_cell_angle_gamma     120.42334

_symmetry_space_group_name_Hall 'P 1'
_symmetry_space_group_name_H-M  'P 1'

loop_
_symmetry_equiv_pos_as_xyz
 'x,y,z'

loop_
_atom_site_label
_atom_site_type_symbol
_atom_site_fract_x
_atom_site_fract_y
_atom_site_fract_z
_atom_site_charge
H          H       0.38188   0.83735   0.92247   0.11351
H          H       0.17123   0.53539   0.86972   0.11275
H          H       0.45758   0.62453   0.10248   0.11163
H          H       0.62079   0.16261   0.07783   0.11444
H          H       0.85067   0.46620   0.90700   0.11252
H          H       0.53857   0.36955   0.92270   0.11365
H          H       0.34036   0.76312   0.93341   0.10465
H          H       0.24564   0.56801   0.88840   0.10547
H          H       0.42280   0.66753   0.12330   0.10301
H          H       0.66168   0.23769   0.07921   0.10430
H          H       0.77397   0.43275   0.92186   0.10541
H          H       0.57513   0.32956   0.91159   0.10360
H          H       0.44461   0.76104   0.01928   0.10630
H          H       0.23078   0.68508   0.16012   0.10605
H          H       0.32939   0.55843   0.89579   0.10662
H          H       0.56041   0.23978   0.97229   0.10931
H          H       0.75652   0.32113   0.04090   0.10581
H          H       0.66997   0.44317   0.11408   0.10941
H          H       0.48712   0.83640   0.00236   0.12104
H          H       0.15668   0.65244   0.13421   0.11827
H          H       0.36395   0.51492   0.87979   0.12209
H          H       0.51826   0.16404   0.97995   0.12238
H          H       0.83514   0.35454   0.01416   0.12203
H          H       0.63416   0.48372   0.11557   0.12188
H          H       0.41319   0.69894   0.98954   0.10501
H          H       0.30135   0.70923   0.00961   0.10258
H          H       0.28784   0.59233   0.05176   0.10038
H          H       0.58687   0.30160   0.04379   0.10064
H          H       0.70202   0.29161   0.98789   0.10096
H          H       0.71016   0.40987   0.98581   0.10428
H          H       0.49183   0.58581   0.98518   0.05637
H          H       0.41296   0.90138   0.00575   0.05816
H          H       0.09872   0.51493   0.02649   0.06154
H          H       0.50535   0.40783   0.01113   0.05574
H          H       0.59090   0.09943   0.98996   0.05815
H          H       0.90185   0.49229   0.00972   0.06000
H          H       0.42706   0.46963   0.95215   0.13195
H          H       0.52841   0.95277   0.00987   0.13657
H          H       0.05161   0.57862  -0.00296   0.13420
H          H       0.56962   0.52352   0.03952   0.13268
H          H       0.47472   0.04841  -0.00328   0.13524
H          H       0.95411   0.42669   0.97960   0.13545
H          H       0.37201   0.83711   0.45548   0.11543
H          H       0.16980   0.53136   0.36491   0.11301
H          H       0.46095   0.63258   0.60351   0.11438
H          H       0.61745   0.16139   0.56710   0.11493
H          H       0.85056   0.46118   0.38860   0.11189
H          H       0.54042   0.37609   0.42240   0.11264
H          H       0.33160   0.76259   0.46555   0.10573
H          H       0.24514   0.56557   0.37990   0.10583
H          H       0.42281   0.67228   0.62382   0.10325
H          H       0.65811   0.23642   0.56903   0.10576
H          H       0.77489   0.42830   0.39204   0.10315
H          H       0.57452   0.33319   0.40626   0.10312
H          H       0.44362   0.76001   0.48646   0.10657
H          H       0.22729   0.68096   0.66004   0.10717
H          H       0.33023   0.55928   0.40756   0.10912
H          H       0.55609   0.23877   0.46855   0.10616
H          H       0.75083   0.31946   0.55799   0.10901
H          H       0.67106   0.44333   0.61416   0.10987
H          H       0.48435   0.83572   0.47553   0.12183
H          H       0.15253   0.64694   0.63594   0.11855
H          H       0.36831   0.51904   0.39196   0.12192
H          H       0.51407   0.16295   0.47624   0.12228
H          H       0.82869   0.35199   0.54017   0.11842
H          H       0.63712   0.48665   0.62416   0.12175
H          H       0.41048   0.70049   0.49395   0.10405
H          H       0.29796   0.70548   0.49305   0.09963
H          H       0.28722   0.59161   0.55269   0.10149
H          H       0.58538   0.30181   0.52739   0.10195
H          H       0.69901   0.28887   0.47126   0.10125
H          H       0.70933   0.40898   0.48390   0.10410
H          H       0.49634   0.59487   0.50279   0.05550
H          H       0.40732   0.90026   0.49405   0.05701
H          H       0.09592   0.50951   0.52941   0.06273
H          H       0.50926   0.41527   0.51461   0.05621
H          H       0.58597   0.09781   0.49253   0.05815
H          H       0.89936   0.48829   0.51263   0.05868
H          H       0.43281   0.47899   0.45988   0.13248
H          H       0.52305   0.94995   0.48954   0.13613
H          H       0.04911   0.57337   0.50071   0.13396
H          H       0.57443   0.53097   0.55143   0.13184
H          H       0.47121   0.04784   0.48393   0.13604
H          H       0.95088   0.42152   0.48079   0.13643
C          C       0.43723   0.84326   0.97108   0.19581
C          C       0.15802   0.59150   0.00699   0.20771
C          C       0.41362   0.56636   0.98555   0.19538
C          C       0.56672   0.15720   0.02239   0.19627
C          C       0.84851   0.41278   0.96204   0.20009
C          C       0.58346   0.42991   0.02360   0.20011
C          C       0.39553   0.82135   0.94910  -0.16107
C          C       0.18373   0.56790   0.93769  -0.17020
C          C       0.43031   0.61000   0.05185  -0.16066
C          C       0.60786   0.17895   0.04910  -0.16584
C          C       0.83011   0.43454   0.93857  -0.16934
C          C       0.56674   0.38588   0.96875  -0.16800
C          C       0.37176   0.77870   0.95563  -0.12511
C          C       0.22578   0.58643   0.94805  -0.12241
C          C       0.41045   0.63432   0.06439  -0.12518
C          C       0.63120   0.22186   0.04957  -0.12298
C          C       0.78627   0.41538   0.94783  -0.11987
C          C       0.58760   0.36321   0.96223  -0.12432
C          C       0.38765   0.75542   0.98536   0.05825
C          C       0.24398   0.62895   0.02777   0.06552
C          C       0.37326   0.61660   0.01168   0.06227
C          C       0.61533   0.24538   0.02172   0.05614
C          C       0.75823   0.37394   0.98359   0.05929
C          C       0.62552   0.38294   0.01194   0.06216
C          C       0.43029   0.77721  -0.00193  -0.13166
C          C       0.21813   0.65232   0.09542  -0.12609
C          C       0.35693   0.57305   0.94474  -0.12677
C          C       0.57385   0.22351  -0.00159  -0.13203
C          C       0.77696   0.35260   0.00744  -0.12557
C          C       0.64180   0.42683   0.06798  -0.12588
C          C       0.45455   0.81984   0.98960  -0.14584
C          C       0.17638   0.63422   0.08301  -0.14881
C          C       0.37643   0.54846   0.93305  -0.14648
C          C       0.54994   0.18064   0.00071  -0.14573
C          C       0.82115   0.37119   0.99377  -0.14485
C          C       0.62149   0.44981   0.07210  -0.14178
C          C       0.37835   0.68550   0.00594  -0.18182
C          C       0.31586   0.69125   0.01648  -0.18278
C          C       0.30845   0.62492   0.03379  -0.17857
C          C       0.62205   0.31547   0.02224  -0.17802
C          C       0.68633   0.31044  -0.00219  -0.18460
C          C       0.69116   0.37674   0.99490  -0.17805
C          C       0.36047   0.71052   0.00422   0.06912
C          C       0.28962   0.64859   0.02887   0.07599
C          C       0.35295   0.64274   0.02035   0.07927
C          C       0.64140   0.29080   0.01455   0.06755
C          C       0.71154   0.35362   0.99265   0.07687
C          C       0.64665   0.35818   0.00795   0.08048
C          C       0.46829   0.55281   0.98573   0.07139
C          C       0.44740   0.91164   0.99152   0.07066
C          C       0.08978   0.53645   0.00758   0.07551
C          C       0.52828   0.44102   0.01245   0.06917
C          C       0.55632   0.08909   0.00583   0.07408
C          C       0.91472   0.46930   0.98397   0.07000
C          C       0.48364   0.52481   0.99283   0.03662
C          C       0.47452   0.95658  -0.00382   0.03021
C          C       0.04598   0.51876   0.99593   0.02976
C          C       0.51266   0.46848   0.00274   0.03376
C          C       0.52899   0.04435   0.00564   0.02714
C          C       0.95952   0.48669   0.98454   0.02683
C          C       0.45793   0.48109   0.97374  -0.15634
C          C       0.51727   0.97396   0.00470  -0.15693
C          C       0.02989   0.54544   0.99408  -0.16256
C          C       0.53851   0.51213   0.02008  -0.15109
C          C       0.48603   0.02710  -0.00036  -0.15356
C          C       0.97585   0.45990   0.98360  -0.16133
C          C       0.47224   0.45398   0.97831   0.07379
C          C       0.54365   0.01649   0.00791   0.07119
C          C       0.98784   0.52982   0.98986   0.06598
C          C       0.52419   0.53925   0.01613   0.07588
C          C       0.45986   0.98451   0.99430   0.07052
C          C       0.01771   0.47561   0.99018   0.06868
C          C       0.43131   0.84245   0.46964   0.19939
C          C       0.15537   0.58664   0.50614   0.20641
C          C       0.41771   0.57266   0.49178   0.19705
C          C       0.56306   0.15597   0.51377   0.19575
C          C       0.84510   0.40908   0.46743   0.19950
C          C       0.58602   0.43480   0.52862   0.19783
C          C       0.38784   0.82074   0.46530  -0.16379
C          C       0.18198   0.56381   0.43393  -0.17291
C          C       0.43309   0.61644   0.55549  -0.16496
C          C       0.60423   0.17775   0.54014  -0.16146
C          C       0.82867   0.43039   0.42903  -0.16803
C          C       0.56824   0.39093   0.46976  -0.16534
C          C       0.36483   0.77807   0.47085  -0.12384
C          C       0.22437   0.58316   0.44203  -0.12351
C          C       0.41125   0.63887   0.56797  -0.12433
C          C       0.62750   0.22066   0.54048  -0.12670
C          C       0.78534   0.41158   0.43232  -0.12053
C          C       0.58773   0.36663   0.46018  -0.12387
C          C       0.38343   0.75458   0.48105   0.06152
C          C       0.24180   0.62570   0.52285   0.06480
C          C       0.37337   0.61908   0.51792   0.06334
C          C       0.61173   0.24425   0.51237   0.05928
C          C       0.75580   0.37108   0.47762   0.05887
C          C       0.62550   0.38453   0.50929   0.06301
C          C       0.42740   0.77632   0.47912  -0.13086
C          C       0.21501   0.64826   0.59397  -0.12766
C          C       0.35828   0.57542   0.45435  -0.12942
C          C       0.56981   0.22248   0.49292  -0.13009
C          C       0.77250   0.35017   0.51681  -0.13465
C          C       0.64289   0.42831   0.56893  -0.12905
C          C       0.45074   0.81906   0.47320  -0.14525
C          C       0.17301   0.62940   0.58319  -0.14361
C          C       0.37978   0.55271   0.44252  -0.14281
C          C       0.54595   0.17959   0.49523  -0.14510
C          C       0.81624   0.36832   0.50865  -0.14248
C          C       0.62376   0.45288   0.57740  -0.14016
C          C       0.37591   0.68600   0.50598  -0.18286
C          C       0.31295   0.68897   0.50700  -0.17986
C          C       0.30719   0.62412   0.53292  -0.17887
C          C       0.62028   0.31517   0.50967  -0.17632
C          C       0.68362   0.30830   0.48450  -0.18365
C          C       0.68987   0.37570   0.48828  -0.17573
C          C       0.35729   0.70963   0.49880   0.06684
C          C       0.28759   0.64643   0.52323   0.07515
C          C       0.35162   0.64335   0.52233   0.07964
C          C       0.63864   0.28957   0.50199   0.06621
C          C       0.70950   0.35151   0.48274   0.07644
C          C       0.64554   0.35815   0.50016   0.07956
C          C       0.47382   0.56152   0.49583   0.07117
C          C       0.44158   0.91047   0.48222   0.07343
C          C       0.08698   0.53089   0.50933   0.07559
C          C       0.53253   0.44836   0.51872   0.07205
C          C       0.55217   0.08759   0.49878   0.07151
C          C       0.91175   0.46500   0.48798   0.07360
C          C       0.48965   0.53361   0.50041   0.03224
C          C       0.46914   0.95521   0.48406   0.02634
C          C       0.04309   0.51323   0.49804   0.02709
C          C       0.51766   0.47653   0.51023   0.03648
C          C       0.52469   0.04275   0.49403   0.02773
C          C       0.95666   0.48182   0.48700   0.02740
C          C       0.46368   0.48997   0.48055  -0.15498
C          C       0.51214   0.97180   0.48870  -0.15497
C          C       0.02726   0.54020   0.49673  -0.16466
C          C       0.54377   0.52014   0.52936  -0.15933
C          C       0.48187   0.02608   0.48738  -0.15557
C          C       0.97275   0.45472   0.48522  -0.16132
C          C       0.47729   0.46249   0.48631   0.07686
C          C       0.53881   0.01427   0.49481   0.07104
C          C       0.98527   0.52487   0.49219   0.06845
C          C       0.52987   0.54768   0.52578   0.07693
C          C       0.45494   0.98369   0.48419   0.07101
C          C       0.01459   0.47013   0.49179   0.06977
Br         Br      0.56124   0.59857   0.05285  -0.07434
Br         Br      0.40235   0.96423   0.97901  -0.07049
Br         Br      0.03649   0.43607   0.98880  -0.06945
Br         Br      0.43544   0.39450   0.94227  -0.08465
Br         Br      0.60176   0.03680   0.01778  -0.07433
Br         Br      0.96914   0.56948   0.99130  -0.07369
Br         Br      0.56681   0.60702   0.56578  -0.08447
Br         Br      0.39666   0.96449   0.47843  -0.07647
Br         Br      0.03315   0.43018   0.48851  -0.07234
Br         Br      0.43885   0.40343   0.45674  -0.07561
Br         Br      0.59625   0.03347   0.50835  -0.07065
Br         Br      0.96702   0.56480   0.49295  -0.07280
N          N       0.46360   0.88637   0.97377  -0.27664
N          N       0.11571   0.57569   0.00065  -0.26579
N          N       0.42933   0.53879   0.97908  -0.27493
N          N       0.54021   0.11416   0.02075  -0.27994
N          N       0.89187   0.42912   0.95834  -0.26863
N          N       0.56693   0.45611   0.02406  -0.27790
N          N       0.45748   0.88545   0.46962  -0.28126
N          N       0.11286   0.57008   0.50072  -0.26485
N          N       0.43526   0.54652   0.48362  -0.27870
N          N       0.53683   0.11280   0.50822  -0.27935
N          N       0.88821   0.42493   0.46550  -0.26759
N          N       0.57083   0.46243   0.53190  -0.27863

