data_crystal

_audit_creation_method 'AiiDA-DDEC plugin'

_cell_length_a        26.68196
_cell_length_b        22.69960
_cell_length_c         8.33085

_cell_angle_alpha     85.27907
_cell_angle_beta     116.34404
_cell_angle_gamma     88.96083

_symmetry_space_group_name_Hall 'P 1'
_symmetry_space_group_name_H-M  'P 1'

loop_
_symmetry_equiv_pos_as_xyz
 'x,y,z'

loop_
_atom_site_label
_atom_site_type_symbol
_atom_site_fract_x
_atom_site_fract_y
_atom_site_fract_z
_atom_site_charge
H          H       0.34706   0.01326   0.30943   0.11799
H          H       0.43197   0.17089   0.30568   0.10045
H          H       0.41292   0.76132   0.25048   0.10008
H          H       0.49913   0.92015   0.29273   0.11690
H          H       0.25252   0.86190   0.03617   0.11202
H          H       0.17740   0.80517   0.06116   0.12234
H          H       0.29912   0.67948   0.96662   0.10266
H          H       0.37684   0.74046   0.45331   0.10877
H          H       0.49663   0.72135   0.38962   0.10043
H          H       0.57846   0.66670   0.39588   0.09563
H          H       0.62288   0.82460   0.18125   0.11339
H          H       0.53892   0.87910   0.16462   0.11184
H          H       0.34931   0.21205   0.17767   0.10219
H          H       0.26609   0.26794   0.15685   0.09717
H          H       0.22254   0.11493   0.39518   0.11504
H          H       0.30747   0.05902   0.42493   0.11116
H          H       0.58048   0.05512   0.44764   0.11567
H          H       0.66021   0.10773   0.43816   0.12124
H          H       0.54606   0.25007   0.08865   0.10298
H          H       0.46604   0.19763   0.09508   0.10986
H          H       0.18306   0.27471   0.19572   0.05421
H          H       0.64362   0.25980   0.19054   0.06285
H          H       0.51903   0.03284   0.16427   0.34760
H          H       0.29773   0.90414   0.25939   0.34369
H          H       0.20525   0.66075   0.35575   0.05886
H          H       0.84115   0.51305   0.28009   0.10136
H          H       0.91584   0.67112   0.20410   0.10291
H          H       0.92918   0.25861   0.33410   0.10096
H          H       0.99023   0.42351   0.23897   0.10185
H          H       0.80004   0.36003   0.43869   0.09491
H          H       0.72363   0.29898   0.42977   0.10191
H          H       0.78370   0.16103   0.22452   0.12258
H          H       0.85631   0.22422   0.21587   0.10206
H          H       0.96869   0.22559   0.18604   0.10408
H          H       0.05061   0.16881   0.19767   0.12069
H          H       0.15005   0.31867   0.36991   0.09797
H          H       0.06971   0.37419   0.36924   0.10005
H          H       0.86791   0.71170   0.31264   0.10050
H          H       0.78809   0.76918   0.31120   0.11999
H          H       0.68836   0.61846   0.16703   0.09693
H          H       0.76626   0.56208   0.15720   0.09166
H          H       0.08099   0.57766   0.50339   0.10153
H          H       0.15534   0.63557   0.48668   0.10010
H          H       0.03212   0.74194   0.51757   0.11980
H          H       0.95869   0.68006   0.02894   0.09873
H          H       0.65868   0.66145   0.34347   0.05302
H          H       0.76327   0.39360   0.10589   0.10361
H          H       0.78996   0.45925   0.04299   0.10902
H          H       0.75127   0.46334   0.17260   0.10765
H          H       0.09039   0.46753   0.04492   0.10852
H          H       0.03125   0.43108   0.04463   0.09899
H          H       0.04433   0.50382   0.11644   0.11038
H          H       0.34198   0.01129   0.81832   0.11768
H          H       0.42266   0.17161   0.80729   0.10051
H          H       0.41127   0.76194   0.75005   0.09989
H          H       0.49509   0.92277   0.80116   0.11719
H          H       0.25063   0.85952   0.53423   0.11398
H          H       0.17522   0.80298   0.55958   0.12208
H          H       0.30141   0.68130   0.46633   0.10315
H          H       0.37481   0.73885   0.95499   0.10934
H          H       0.49466   0.72282   0.88474   0.10081
H          H       0.57759   0.67038   0.89158   0.09566
H          H       0.62174   0.83120   0.69068   0.11399
H          H       0.53654   0.88382   0.67349   0.11200
H          H       0.34082   0.21074   0.68074   0.10259
H          H       0.25752   0.26629   0.65839   0.09658
H          H       0.21257   0.11219   0.88835   0.11451
H          H       0.29780   0.05666   0.92047   0.11219
H          H       0.57239   0.05727   0.94243   0.11428
H          H       0.65145   0.10984   0.92767   0.12056
H          H       0.53622   0.25233   0.58320   0.10267
H          H       0.45685   0.20002   0.59654   0.11070
H          H       0.17464   0.27312   0.69956   0.05534
H          H       0.63308   0.26068   0.66978   0.05951
H          H       0.50964   0.03633   0.65489   0.34746
H          H       0.29332   0.90101   0.75960   0.34227
H          H       0.20273   0.65920   0.85487   0.05920
H          H       0.83778   0.51621   0.78804   0.10301
H          H       0.91325   0.67267   0.70345   0.10271
H          H       0.92310   0.26002   0.84445   0.09967
H          H       0.98472   0.42291   0.74001   0.10436
H          H       0.78646   0.36674   0.91061   0.09501
H          H       0.70933   0.30653   0.89660   0.10271
H          H       0.78025   0.16119   0.75018   0.12245
H          H       0.85386   0.22289   0.74680   0.10637
H          H       0.95996   0.22705   0.68478   0.10359
H          H       0.04109   0.16871   0.69549   0.11965
H          H       0.14380   0.31563   0.88008   0.09726
H          H       0.06453   0.37223   0.88220   0.09806
H          H       0.86793   0.71353   0.82067   0.10106
H          H       0.78954   0.77292   0.82152   0.11915
H          H       0.68632   0.62486   0.67189   0.09584
H          H       0.76302   0.56656   0.66171   0.09211
H          H       0.07719   0.57600   0.99419   0.10073
H          H       0.15220   0.63284   0.98013   0.10029
H          H       0.03401   0.74047   0.01598   0.11943
H          H       0.95574   0.68314   0.52837   0.10069
H          H       0.65829   0.66741   0.84726   0.05181
H          H       0.75997   0.39902   0.58082   0.10379
H          H       0.78883   0.46587   0.53585   0.10909
H          H       0.74500   0.46709   0.64920   0.10857
H          H       0.09459   0.46282   0.55154   0.10843
H          H       0.03363   0.43081   0.55185   0.10151
H          H       0.05167   0.50256   0.62841   0.10866
C          C       0.38196   0.09646   0.30002   0.04557
C          C       0.38099   0.03479   0.29655  -0.16001
C          C       0.42007  -0.00058   0.26988  -0.00806
C          C       0.46301   0.03055   0.24796   0.21682
C          C       0.46891   0.09146   0.27217  -0.08887
C          C       0.42742   0.12388   0.29232  -0.16303
C          C       0.41581   0.93406   0.26301  -0.01119
C          C       0.36853   0.90287   0.25181   0.22114
C          C       0.36812   0.84047   0.24959  -0.07906
C          C       0.41478   0.80885   0.25767  -0.15710
C          C       0.46213   0.83725   0.26965   0.04597
C          C       0.46157   0.89871   0.27554  -0.15854
C          C       0.33490   0.13098   0.30219   0.07721
C          C       0.51693   0.12194   0.26800   0.07601
C          C       0.32099   0.80702   0.24978   0.07670
C          C       0.51121   0.80443   0.27573   0.07892
C          C       0.26383   0.82420   0.13793  -0.16832
C          C       0.22126   0.79194   0.14842  -0.09572
C          C       0.23418   0.74027   0.26814   0.05303
C          C       0.29088   0.72137   0.37351  -0.12884
C          C       0.33324   0.75445   0.36603  -0.13130
C          C       0.52310   0.74394   0.33892  -0.14292
C          C       0.56970   0.71338   0.34503  -0.13250
C          C       0.60656   0.74215   0.29015   0.05305
C          C       0.59500   0.80270   0.22732  -0.08879
C          C       0.54819   0.83290   0.21954  -0.13343
C          C       0.32291   0.19085   0.23117  -0.14833
C          C       0.27539   0.22211   0.21634  -0.13379
C          C       0.23795   0.19475   0.27121   0.05105
C          C       0.25060   0.13539   0.34724  -0.08816
C          C       0.29805   0.10441   0.36251  -0.13034
C          C       0.57255   0.09717   0.36500  -0.15909
C          C       0.61740   0.12644   0.36150  -0.09775
C          C       0.60836   0.18181   0.26084   0.05293
C          C       0.55334   0.20722   0.16698  -0.12650
C          C       0.50847   0.17786   0.17042  -0.13234
C          C       0.18803   0.22807   0.25092   0.07083
C          C       0.65430   0.21384   0.25388   0.06542
C          C       0.19109   0.70562   0.28582   0.05946
C          C       0.87263   0.59634   0.24606   0.06122
C          C       0.87550   0.53435   0.27006  -0.17522
C          C       0.92164   0.49775   0.29018   0.00035
C          C       0.96982   0.52821   0.30625   0.15776
C          C       0.96696   0.59047   0.26885  -0.02541
C          C       0.91766   0.62340   0.23419  -0.16585
C          C       0.91898   0.43171   0.29113  -0.00476
C          C       0.87616   0.39838   0.30639   0.16343
C          C       0.87817   0.33553   0.31527  -0.02303
C          C       0.92433   0.30653   0.31079  -0.16394
C          C       0.96504   0.33713   0.28254   0.06013
C          C       0.96043   0.39901   0.26843  -0.17874
C          C       0.82440   0.63130   0.24014   0.06669
C          C       0.01394   0.62297   0.26323   0.08012
C          C       0.83398   0.29852   0.32447   0.06727
C          C       0.01250   0.30470   0.27583   0.06598
C          C       0.79528   0.31773   0.38429  -0.13511
C          C       0.75196   0.28341   0.37813  -0.18804
C          C       0.74677   0.22653   0.31891   0.19981
C          C       0.78727   0.20495   0.27036  -0.16234
C          C       0.82873   0.24081   0.26857  -0.12122
C          C       0.00846   0.24621   0.22787  -0.12074
C          C       0.05406   0.21413   0.23297  -0.15107
C          C       0.10577   0.23986   0.28085   0.20996
C          C       0.10997   0.29861   0.32652  -0.18689
C          C       0.06443   0.32996   0.32518  -0.12868
C          C       0.82873   0.69066   0.28033  -0.12585
C          C       0.78429   0.72330   0.28115  -0.15102
C          C       0.73351   0.69739   0.24790   0.20972
C          C       0.72823   0.63848   0.20314  -0.18419
C          C       0.77248   0.60666   0.19824  -0.12394
C          C       0.07035   0.61128   0.39126  -0.11784
C          C       0.11253   0.64437   0.38227  -0.18002
C          C       0.10009   0.69110   0.24554   0.19819
C          C       0.04367   0.70454   0.12193  -0.14631
C          C       0.00182   0.67066   0.13007  -0.13326
C          C       0.65446   0.70877   0.29582   0.07285
C          C       0.78112   0.43613   0.14803  -0.19200
C          C       0.04683   0.47406   0.02269  -0.19601
C          C       0.37441   0.09584   0.80447   0.04778
C          C       0.37500   0.03404   0.80310  -0.15856
C          C       0.41442  -0.00016   0.77478  -0.00711
C          C       0.45627   0.03219   0.74995   0.21899
C          C       0.46094   0.09324   0.77326  -0.08667
C          C       0.41909   0.12446   0.79468  -0.16045
C          C       0.41129   0.93442   0.76780  -0.01406
C          C       0.36450   0.90205   0.75508   0.22041
C          C       0.36532   0.83970   0.75162  -0.08018
C          C       0.41241   0.80940   0.75873  -0.15698
C          C       0.45932   0.83900   0.77192   0.04583
C          C       0.45778   0.90030   0.78081  -0.15687
C          C       0.32655   0.12944   0.80459   0.07543
C          C       0.50843   0.12439   0.76735   0.07422
C          C       0.31872   0.80523   0.75068   0.07838
C          C       0.50886   0.80738   0.77698   0.07719
C          C       0.26164   0.82211   0.63696  -0.16980
C          C       0.21908   0.78994   0.64733  -0.09493
C          C       0.23209   0.73851   0.76802   0.05297
C          C       0.28875   0.71958   0.87398  -0.12760
C          C       0.33118   0.75271   0.86720  -0.13148
C          C       0.52114   0.74664   0.83656  -0.14273
C          C       0.56839   0.71727   0.84342  -0.13038
C          C       0.60551   0.74743   0.79277   0.05380
C          C       0.59353   0.80821   0.73311  -0.09145
C          C       0.54607   0.83728   0.72475  -0.13302
C          C       0.31432   0.18933   0.73346  -0.14591
C          C       0.26671   0.22045   0.71786  -0.12962
C          C       0.22905   0.19286   0.77125   0.04970
C          C       0.24123   0.13317   0.84406  -0.09025
C          C       0.28898   0.10237   0.86083  -0.12871
C          C       0.56415   0.09961   0.86106  -0.15521
C          C       0.60859   0.12872   0.85392  -0.09641
C          C       0.59902   0.18398   0.75211   0.05245
C          C       0.54389   0.20950   0.66192  -0.12801
C          C       0.49942   0.18031   0.66943  -0.13074
C          C       0.17942   0.22627   0.75279   0.07314
C          C       0.64461   0.21590   0.74174   0.06588
C          C       0.18885   0.70417   0.78543   0.05953
C          C       0.86968   0.59864   0.74783   0.06036
C          C       0.87171   0.53670   0.77274  -0.17775
C          C       0.91669   0.49931   0.78756   0.00012
C          C       0.96474   0.52909   0.79849   0.15835
C          C       0.96291   0.59133   0.76245  -0.02372
C          C       0.91444   0.62496   0.73208  -0.16519
C          C       0.91352   0.43322   0.79182  -0.00138
C          C       0.87012   0.40065   0.80624   0.15894
C          C       0.87165   0.33768   0.82017  -0.02391
C          C       0.91806   0.30789   0.81936  -0.16308
C          C       0.95878   0.33761   0.78903   0.06175
C          C       0.95478   0.39947   0.77146  -0.17701
C          C       0.82244   0.63453   0.74464   0.06892
C          C       0.01032   0.62319   0.75706   0.08090
C          C       0.82665   0.30132   0.82739   0.07046
C          C       0.00576   0.30439   0.78235   0.06263
C          C       0.78427   0.32272   0.86856  -0.13666
C          C       0.74034   0.28875   0.85899  -0.18698
C          C       0.73775   0.22998   0.81495   0.20112
C          C       0.78153   0.20652   0.78446  -0.16229
C          C       0.82370   0.24183   0.78572  -0.11881
C          C       0.00038   0.24647   0.73003  -0.12122
C          C       0.04545   0.21365   0.73402  -0.15418
C          C       0.09774   0.23828   0.78466   0.21110
C          C       0.10321   0.29654   0.83443  -0.18517
C          C       0.05827   0.32852   0.83459  -0.12339
C          C       0.82818   0.69361   0.78723  -0.12849
C          C       0.78446   0.72734   0.78890  -0.14961
C          C       0.73294   0.70283   0.75338   0.21000
C          C       0.72657   0.64398   0.70832  -0.18016
C          C       0.77012   0.61104   0.70306  -0.12536
C          C       0.06677   0.61017   0.88359  -0.11758
C          C       0.10943   0.64281   0.87637  -0.17906
C          C       0.09757   0.69048   0.74291   0.19777
C          C       0.04123   0.70523   0.62085  -0.14529
C          C      -0.00117   0.67196   0.62758  -0.13418
C          C       0.65390   0.71475   0.79955   0.07539
C          C       0.77693   0.44107   0.63144  -0.19094
C          C       0.05168   0.47238   0.53204  -0.19345
N          N       0.70460   0.19027   0.31588  -0.27578
N          N       0.15078   0.20457   0.29119  -0.28319
N          N       0.13975   0.72605   0.22331  -0.28029
N          N       0.69050   0.73277   0.25046  -0.28912
N          N       0.69563   0.19367   0.81193  -0.27569
N          N       0.14223   0.20260   0.79294  -0.28568
N          N       0.13766   0.72512   0.72242  -0.28070
N          N       0.69018   0.73885   0.75547  -0.28914
O          O       0.49843   0.00240   0.19515  -0.42440
O          O       0.32293   0.93321   0.24814  -0.41816
O          O       0.02141   0.49969   0.34918  -0.19069
O          O       0.83135   0.42752   0.31683  -0.18654
O          O       0.49217   0.00512   0.69681  -0.42517
O          O       0.31835   0.93096   0.75191  -0.41998
O          O       0.01565   0.49972   0.83842  -0.18929
O          O       0.82423   0.43081   0.80714  -0.18672

