data_crystal

_audit_creation_method 'AiiDA-DDEC plugin'

_cell_length_a        26.52829
_cell_length_b        22.70530
_cell_length_c         8.53695

_cell_angle_alpha     90.96228
_cell_angle_beta     65.14300
_cell_angle_gamma     88.68221

_symmetry_space_group_name_Hall 'P 1'
_symmetry_space_group_name_H-M  'P 1'

loop_
_symmetry_equiv_pos_as_xyz
 'x,y,z'

loop_
_atom_site_label
_atom_site_type_symbol
_atom_site_fract_x
_atom_site_fract_y
_atom_site_fract_z
_atom_site_charge
H          H       0.39840   0.06499   0.10746   0.09648
H          H       0.48988   0.22165   0.04144   0.10410
H          H       0.35880   0.11043   0.46567   0.10665
H          H       0.26979   0.16663   0.02493   0.11383
H          H       0.32280   0.31616   0.22401   0.09977
H          H       0.40666   0.25979   0.19982   0.10559
H          H       0.53571   0.23139   0.21709   0.10665
H          H       0.61471   0.28821   0.21313   0.10310
H          H       0.72479   0.17881   0.29843   0.11522
H          H       0.64583   0.12381   0.29703   0.10847
H          H       0.23858   0.32525   0.18353   0.05788
H          H       0.71213   0.30965   0.08680   0.06316
H          H       0.54885   0.97461   0.12302   0.10292
H          H       0.49233   0.81121   0.01583   0.09781
H          H       0.62776   0.92837   0.00771   0.10689
H          H       0.70566   0.87530   0.03977   0.11550
H          H       0.60465   0.72427   0.21745   0.09963
H          H       0.52613   0.77746   0.19201   0.10630
H          H       0.42515   0.77103   0.07822   0.10247
H          H       0.35512   0.70947   0.05017   0.09942
H          H       0.29469   0.85501   0.36052   0.10929
H          H       0.37034   0.91542   0.36879   0.09380
H          H       0.70081   0.71610   0.16506   0.05563
H          H       0.27500   0.69639   0.97717   0.06012
H          H       0.32728   0.93923   0.17614   0.11014
H          H       0.31805   0.01292   0.11874   0.11843
H          H       0.35044   0.00018   0.26298   0.10896
H          H       0.60996   0.05007   0.21060   0.11133
H          H       0.58945   0.97982   0.30572   0.09596
H          H       0.65262   0.01020   0.29313   0.11993
H          H       0.05493   0.47339   0.07213   0.10154
H          H       0.99136   0.31324   0.46861   0.09980
H          H       0.12944   0.42542   0.47134   0.10300
H          H       0.20743   0.37118   0.00864   0.09871
H          H       0.10631   0.21920   0.16079   0.11976
H          H       0.02871   0.27552   0.13722   0.10611
H          H       0.92140   0.27573   0.07392   0.10341
H          H       0.84942   0.21406   0.05575   0.12276
H          H       0.79243   0.36032   0.33040   0.10298
H          H       0.86869   0.42008   0.33470   0.09311
H          H       0.90489   0.56748   0.05427   0.09958
H          H       0.99757   0.72178   0.01357   0.10559
H          H       0.83850   0.63299   0.26775   0.10376
H          H       0.75459   0.69201   0.30306   0.10338
H          H       0.85440   0.80723   0.41824   0.12051
H          H       0.93868   0.74830   0.38714   0.10536
H          H       0.04325   0.72903   0.18126   0.10065
H          H       0.12216   0.78774   0.17310   0.12279
H          H       0.23448   0.67009   0.27217   0.09631
H          H       0.15476   0.61691   0.27251   0.10309
H          H       0.11366   0.55040   0.16742   0.10961
H          H       0.08913   0.48042   0.25920   0.09910
H          H       0.15469   0.50499   0.24306   0.10757
H          H       0.83191   0.44371   0.14972   0.10231
H          H       0.82240   0.51496   0.07681   0.11116
H          H       0.85658   0.50793   0.21851   0.10441
H          H       0.39678   0.06379   0.60593   0.09777
H          H       0.48596   0.22153   0.54816   0.10811
H          H       0.35639   0.11105   0.98679   0.10598
H          H       0.27238   0.16454   0.49501   0.11261
H          H       0.31336   0.30993   0.74246   0.09988
H          H       0.39801   0.25565   0.72143   0.10444
H          H       0.53279   0.23512   0.71644   0.10764
H          H       0.61178   0.29295   0.70756   0.10349
H          H       0.72767   0.17781   0.79263   0.11508
H          H       0.64870   0.12353   0.78785   0.10916
H          H       0.23235   0.31920   0.68827   0.05749
H          H       0.71008   0.31413   0.57823   0.06359
H          H       0.54794   0.97420   0.62710   0.10453
H          H       0.49323   0.81086   0.51209   0.09797
H          H       0.62862   0.92725   0.50451   0.10715
H          H       0.70559   0.87344   0.54110   0.11489
H          H       0.60256   0.72406   0.72322   0.09951
H          H       0.52503   0.77789   0.69317   0.10291
H          H       0.42461   0.77052   0.58368   0.10256
H          H       0.35483   0.70887   0.55263   0.09926
H          H       0.29144   0.85666   0.87235   0.10985
H          H       0.36773   0.91690   0.87514   0.09334
H          H       0.69755   0.71630   0.68366   0.05615
H          H       0.27587   0.69587   0.47676   0.05987
H          H       0.32790   0.93678   0.68242   0.10981
H          H       0.31631   0.00874   0.61850   0.11934
H          H       0.34920   0.00070   0.76299   0.10808
H          H       0.61013   0.04766   0.70582   0.11131
H          H       0.59236   0.97764   0.80542   0.09550
H          H       0.65513   0.01120   0.78575   0.11974
H          H       0.05086   0.47335   0.58576   0.10170
H          H       0.99432   0.31117   0.97156   0.10033
H          H       0.13193   0.42608   0.97343   0.10415
H          H       0.20587   0.36858   0.49747   0.09931
H          H       0.10367   0.21708   0.64545   0.11981
H          H       0.02543   0.27559   0.63402   0.10576
H          H       0.91938   0.27767   0.56623   0.10485
H          H       0.84769   0.21645   0.54526   0.12243
H          H       0.79465   0.35647   0.83482   0.10366
H          H       0.87118   0.41630   0.83450   0.09402
H          H       0.90105   0.56950   0.58103   0.09954
H          H       0.99604   0.72276   0.52529   0.10407
H          H       0.83556   0.63380   0.78220   0.10247
H          H       0.75187   0.69128   0.80925   0.10155
H          H       0.85613   0.80795   0.91043   0.12011
H          H       0.94033   0.74788   0.87208   0.10357
H          H       0.04388   0.73463   0.67685   0.09983
H          H       0.12396   0.79223   0.65952   0.12299
H          H       0.23509   0.67396   0.76330   0.09582
H          H       0.15639   0.62008   0.75692   0.10159
H          H       0.11889   0.54977   0.65809   0.10807
H          H       0.09467   0.47987   0.75036   0.09750
H          H       0.15908   0.50559   0.74002   0.10759
H          H       0.82846   0.44439   0.64472   0.10133
H          H       0.81946   0.51828   0.58769   0.11232
H          H       0.85221   0.50504   0.73069   0.10332
C          C       0.43758   0.08519   0.07653  -0.16720
C          C       0.43827   0.14680   0.07160   0.05652
C          C       0.48780   0.17393   0.04548  -0.16675
C          C       0.53619   0.14077   0.01688  -0.02686
C          C       0.53279   0.07890   0.51430   0.16092
C          C       0.48463   0.04882   0.04467  -0.00296
C          C       0.38790   0.18097   0.09154   0.07440
C          C       0.58289   0.17378   0.51119   0.08786
C          C       0.34806   0.15526   0.04475  -0.13795
C          C       0.30009   0.18615   0.06339  -0.09590
C          C       0.29045   0.24490   0.12693   0.05367
C          C       0.33007   0.27095   0.17294  -0.12863
C          C       0.37779   0.23949   0.15662  -0.13987
C          C       0.57758   0.22045   0.12110  -0.14615
C          C       0.62204   0.25217   0.11954  -0.12863
C          C       0.67395   0.23895   0.50440   0.04502
C          C       0.68253   0.19047   0.39044  -0.10829
C          C       0.63793   0.15901   0.39253  -0.12452
C          C       0.24180   0.27902   0.13856   0.06957
C          C       0.72035   0.27100   0.50943   0.07212
C          C       0.52063   0.95047   0.08623  -0.16600
C          C       0.52535   0.88893   0.07457   0.05499
C          C       0.48713   0.85872   0.03327  -0.15633
C          C       0.44339   0.88741   0.00990  -0.02647
C          C       0.44063   0.95020   0.02085   0.16484
C          C       0.48120   0.98302   0.05036  -0.00273
C          C       0.57083   0.85721   0.09799   0.07986
C          C       0.40228   0.85029   0.98136   0.08513
C          C       0.62204   0.88419   0.05815  -0.13168
C          C       0.66586   0.85478   0.07473  -0.09809
C          C       0.66053   0.79640   0.13112   0.05583
C          C       0.60951   0.76924   0.17211  -0.13722
C          C       0.56546   0.79910   0.15651  -0.13654
C          C       0.39818   0.79026   0.02466  -0.13756
C          C       0.35742   0.75530   0.01261  -0.13758
C          C       0.31853   0.77838   0.45992   0.05614
C          C       0.32387   0.83712   0.40799  -0.10317
C          C       0.36575   0.87097   0.41472  -0.14262
C          C       0.70730   0.76327   0.13812   0.06440
C          C       0.27238   0.74380   0.46416   0.06474
C          C       0.34546   0.98292   0.14932  -0.18827
C          C       0.60990   0.02078   0.31153  -0.19500
C          C       0.02560   0.44975   0.03954  -0.17623
C          C       0.02926   0.38818   0.02959   0.05812
C          C       0.99002   0.35868   0.99141  -0.16299
C          C       0.94280   0.39105   0.47500  -0.02020
C          C       0.94140   0.45370   0.48693   0.15733
C          C       0.98609   0.48319   0.00606  -0.00364
C          C       0.07399   0.35555   0.05448   0.06943
C          C       0.89980   0.35510   0.45399   0.06378
C          C       0.12505   0.38152   0.02115  -0.12896
C          C       0.16787   0.35050   0.04019  -0.18474
C          C       0.16180   0.29133   0.09064   0.20523
C          C       0.11100   0.26493   0.12273  -0.15237
C          C       0.06792   0.29670   0.10778  -0.12001
C          C       0.89562   0.29356   0.01406  -0.11989
C          C       0.85425   0.25851   0.00734  -0.16969
C          C       0.81305   0.28496   0.44479   0.20402
C          C       0.81964   0.34304   0.38628  -0.19110
C          C       0.86282   0.37649   0.38730  -0.13328
C          C       0.94381   0.58657   0.03415  -0.17157
C          C       0.94544   0.64815   0.03573   0.06314
C          C       0.99552   0.67403   0.00897  -0.17472
C          C       0.04175   0.64044   0.48967  -0.02294
C          C       0.03874   0.57843   0.47750   0.15734
C          C       0.99041   0.54898   0.00083   0.00156
C          C       0.89544   0.68458   0.06235   0.06499
C          C       0.09233   0.67055   0.47734   0.07060
C          C       0.84222   0.66988   0.18420  -0.12783
C          C       0.79499   0.70309   0.20415  -0.17802
C          C       0.79936   0.75261   0.10223   0.20008
C          C       0.85097   0.76904   0.49692  -0.14789
C          C       0.89781   0.73606   0.48072  -0.13156
C          C       0.08515   0.71803   0.08569  -0.12845
C          C       0.12905   0.75081   0.08294  -0.16032
C          C       0.18477   0.73481   0.46597   0.20656
C          C       0.19246   0.68401   0.36105  -0.19050
C          C       0.14717   0.65343   0.36362  -0.11772
C          C       0.11234   0.51917   0.26555  -0.19448
C          C       0.85028   0.48694   0.11122  -0.18909
C          C       0.43563   0.08425   0.57824  -0.16902
C          C       0.43566   0.14585   0.57401   0.05870
C          C       0.48458   0.17374   0.55152  -0.16893
C          C       0.53337   0.14127   0.52391  -0.02791
C          C       0.53503   0.07853   0.00837   0.16087
C          C       0.48284   0.04848   0.54910  -0.00176
C          C       0.38495   0.17892   0.59116   0.07319
C          C       0.58587   0.17240   0.00551   0.08918
C          C       0.34814   0.15363   0.53026  -0.13880
C          C       0.30021   0.18368   0.54449  -0.09863
C          C       0.28724   0.24089   0.61961   0.05296
C          C       0.32371   0.26629   0.68048  -0.12741
C          C       0.37166   0.23593   0.66707  -0.13773
C          C       0.57465   0.22330   0.62194  -0.14637
C          C       0.61913   0.25572   0.61768  -0.13039
C          C       0.67679   0.23596   0.00439   0.04429
C          C       0.68540   0.18891   0.88579  -0.10839
C          C       0.64080   0.15808   0.88528  -0.12564
C          C       0.23825   0.27442   0.63065   0.07407
C          C       0.72289   0.26731   0.01371   0.07412
C          C       0.51995   0.95015   0.58916  -0.16677
C          C       0.52530   0.88866   0.57501   0.05515
C          C       0.48743   0.85822   0.53290  -0.15888
C          C       0.44340   0.88664   0.51119  -0.02660
C          C       0.44006   0.94934   0.52362   0.16535
C          C       0.48019   0.98257   0.55421  -0.00321
C          C       0.57073   0.85688   0.59809   0.08073
C          C       0.40275   0.84927   0.48176   0.08473
C          C       0.62219   0.88339   0.55736  -0.13313
C          C       0.66548   0.85362   0.57596  -0.09651
C          C       0.65913   0.79567   0.63597   0.05580
C          C       0.60803   0.76886   0.67645  -0.13678
C          C       0.56458   0.79897   0.65835  -0.13512
C          C       0.39823   0.78948   0.52751  -0.13811
C          C       0.35781   0.75452   0.51331  -0.13789
C          C       0.31711   0.77932   0.96393   0.05740
C          C       0.32167   0.83844   0.91522  -0.10467
C          C       0.36400   0.87225   0.91933  -0.14332
C          C       0.70515   0.76268   0.64749   0.06310
C          C       0.27111   0.74445   0.96814   0.06492
C          C       0.34469   0.98097   0.65126  -0.18776
C          C       0.61183   0.01969   0.80710  -0.19636
C          C       0.02211   0.45047   0.54862  -0.17189
C          C       0.02615   0.38901   0.53197   0.05866
C          C       0.98695   0.36063   0.49124  -0.16401
C          C       0.94577   0.38835   0.97393  -0.01945
C          C       0.94439   0.45104   0.98128   0.15960
C          C       0.98283   0.48474   0.51655  -0.00443
C          C       0.07125   0.35524   0.55173   0.06648
C          C       0.90246   0.35208   0.95606   0.06294
C          C       0.12276   0.38048   0.51596  -0.12604
C          C       0.16603   0.34840   0.52948  -0.18692
C          C       0.16000   0.28877   0.57541   0.20849
C          C       0.10874   0.26305   0.60971  -0.15539
C          C       0.06518   0.29600   0.60131  -0.12012
C          C       0.89329   0.29617   0.50839  -0.11904
C          C       0.85212   0.26129   0.49970  -0.16830
C          C       0.81538   0.28162   0.95077   0.20319
C          C       0.82204   0.33941   0.89022  -0.18984
C          C       0.86540   0.37301   0.88905  -0.13263
C          C       0.94062   0.58811   0.55551  -0.16719
C          C       0.94300   0.64957   0.55428   0.06131
C          C       0.99358   0.67504   0.52365  -0.17503
C          C       0.04358   0.63961   0.97708  -0.02262
C          C       0.04132   0.57758   0.96513   0.15709
C          C       0.98735   0.55040   0.51643   0.00168
C          C       0.89317   0.68569   0.57868   0.06755
C          C       0.09337   0.66991   0.97003   0.07011
C          C       0.83966   0.67046   0.69758  -0.12723
C          C       0.79258   0.70290   0.71311  -0.17755
C          C       0.79740   0.75210   0.60967   0.19965
C          C       0.85280   0.76939   0.98766  -0.14980
C          C       0.89970   0.73563   0.96718  -0.12946
C          C       0.08544   0.72108   0.58385  -0.12750
C          C       0.13015   0.75353   0.57595  -0.15771
C          C       0.18392   0.73457   0.96867   0.20630
C          C       0.19288   0.68583   0.85522  -0.19114
C          C       0.14833   0.65498   0.85334  -0.11729
C          C       0.11698   0.51912   0.75834  -0.19287
C          C       0.84690   0.48800   0.61726  -0.18972
N          N       0.20471   0.25615   0.09731  -0.28462
N          N       0.77076   0.24966   0.44255  -0.27786
N          N       0.75441   0.78694   0.10508  -0.28198
N          N       0.22844   0.76877   0.46259  -0.27021
N          N       0.20349   0.25299   0.57665  -0.28429
N          N       0.77337   0.24625   0.94680  -0.27830
N          N       0.75283   0.78587   0.60818  -0.28380
N          N       0.22678   0.76916   0.96868  -0.26776
O          O       0.39810   0.98067  -0.00141  -0.19240
O          O       0.58287   0.04965   0.47997  -0.19246
O          O       0.08838   0.54689   0.43559  -0.19376
O          O       0.89924   0.48569   0.46579  -0.18804
O          O       0.39735   0.97914   0.50073  -0.19234
O          O       0.58507   0.04928   0.97460  -0.19198
O          O       0.09115   0.54691   0.92801  -0.19345
O          O       0.90202   0.48177   0.95841  -0.18863

