data_crystal

_audit_creation_method 'AiiDA-DDEC plugin'

_cell_length_a        26.50352
_cell_length_b        22.48507
_cell_length_c         8.05676

_cell_angle_alpha     99.51168
_cell_angle_beta     79.28463
_cell_angle_gamma     89.70922

_symmetry_space_group_name_Hall 'P 1'
_symmetry_space_group_name_H-M  'P 1'

loop_
_symmetry_equiv_pos_as_xyz
 'x,y,z'

loop_
_atom_site_label
_atom_site_type_symbol
_atom_site_fract_x
_atom_site_fract_y
_atom_site_fract_z
_atom_site_charge
H          H       0.85456   0.07655   0.04928   0.10198
H          H       0.68685   0.00355   0.03166   0.09266
H          H       0.60819   0.05496   0.99390   0.09758
H          H       0.51649   0.06537   0.03240   0.06111
H          H       0.94229   0.09106   0.49458   0.06225
H          H       0.66428   0.81544   0.13482   0.11631
H          H       0.73525   0.98500   0.22657   0.10009
H          H       0.73433   0.57237   0.25538   0.10207
H          H       0.81415   0.73545   0.20585   0.11681
H          H       0.82802   0.85474   0.41568   0.34296
H          H       0.61290   0.71528   0.29028   0.33412
H          H       0.79662   0.55541   0.38625   0.10087
H          H       0.87859   0.50242   0.38116   0.10122
H          H       0.95924   0.62177   0.06693   0.11447
H          H       0.87691   0.67518   0.07088   0.10838
H          H       0.59428   0.67391   0.49183   0.10720
H          H       0.51409   0.61848   0.47683   0.11755
H          H       0.59404   0.49376   0.04394   0.10494
H          H       0.67375   0.54959   0.05583   0.10983
H          H       0.87675   0.87814   0.15766   0.11231
H          H       0.95191   0.93664   0.22141   0.11758
H          H       0.77528   0.01843   0.47960   0.10487
H          H       0.51553   0.92713   0.24265   0.11372
H          H       0.59475   0.87359   0.27416   0.11006
H          H       0.50188   0.49111   0.11990   0.06474
H          H       0.97026   0.49942   0.32970   0.06253
H          H       0.16341   0.31211   0.14250   0.11258
H          H       0.24089   0.47866   0.21067   0.10199
H          H       0.22762   0.07075   0.29027   0.10224
H          H       0.31112   0.22673   0.18058   0.11341
H          H       0.33158   0.34614   0.39992   0.34073
H          H       0.10956   0.22092   0.35945   0.33143
H          H       0.29417   0.04226   0.35832   0.10525
H          H       0.37714   0.98577   0.32127   0.11575
H          H       0.45448   0.12516   0.50826   0.10594
H          H       0.36982   0.16686   0.04920   0.10696
H          H       0.09659   0.18038   0.05245   0.10378
H          H       0.01592   0.12622   0.07743   0.10874
H          H       0.08199   0.98911   0.17100   0.12270
H          H       0.16334   0.04498   0.13950   0.11711
H          H       0.37760   0.36368   0.13009   0.11016
H          H       0.45692   0.41583   0.17070   0.10947
H          H       0.36783   0.56255   0.50987   0.12114
H          H       0.28723   0.51026   0.46615   0.10862
H          H       0.18843   0.50289   0.03947   0.09330
H          H       0.10883   0.55691   0.01555   0.11653
H          H       0.01824   0.42128   0.23424   0.10522
H          H       0.09676   0.36823   0.26085   0.10725
H          H       0.85042   0.07589   0.54602   0.10308
H          H       0.69156   0.01348   0.54034   0.09081
H          H       0.61452   0.06854   0.50392   0.09844
H          H       0.52230   0.08202   0.54146   0.06103
H          H       0.94644   0.08984   0.99191   0.06243
H          H       0.66395   0.82259   0.62721   0.11817
H          H       0.73820   0.98972   0.73132   0.09943
H          H       0.72743   0.57818   0.76714   0.09935
H          H       0.81026   0.73800   0.69932   0.11582
H          H       0.82329   0.85497   0.93084   0.34285
H          H       0.60851   0.72452   0.79496   0.33518
H          H       0.79039   0.55532   0.87502   0.10173
H          H       0.87227   0.50209   0.87099   0.10133
H          H       0.95426   0.62625   0.57729   0.11427
H          H       0.87255   0.68044   0.58254   0.10991
H          H       0.58839   0.68579   0.00049   0.10726
H          H       0.50686   0.63188   0.99211   0.11905
H          H       0.58547   0.49879   0.57904   0.10605
H          H       0.66648   0.55294   0.58355   0.11574
H          H       0.87620   0.87768   0.66630   0.11361
H          H       0.95292   0.93461   0.72545   0.11673
H          H       0.77786   0.02090   0.98761   0.10461
H          H       0.51803   0.93702   0.71907   0.11224
H          H       0.59563   0.88094   0.75526   0.11285
H          H       0.49446   0.50070   0.64351   0.06373
H          H       0.96411   0.50008   0.82715   0.06452
H          H       0.16065   0.31462   0.63058   0.11147
H          H       0.23443   0.48335   0.71001   0.10157
H          H       0.23177   0.07461   0.77784   0.10304
H          H       0.31007   0.23373   0.66430   0.11369
H          H       0.32343   0.35254   0.91297   0.34049
H          H       0.10957   0.21935   0.84683   0.33001
H          H       0.29892   0.04801   0.83864   0.10675
H          H       0.38301   0.99408   0.79937   0.11614
H          H       0.45165   0.11219   0.01936   0.10878
H          H       0.37127   0.17723   0.53988   0.10571
H          H       0.09302   0.18244   0.55696   0.10280
H          H       0.01136   0.13000   0.57601   0.10913
H          H       0.08486   0.98928   0.65807   0.12128
H          H       0.16545   0.04586   0.62435   0.11399
H          H       0.37337   0.37028   0.64857   0.10903
H          H       0.45090   0.42466   0.69759   0.10876
H          H       0.35702   0.57298   0.01044   0.12119
H          H       0.27831   0.51827   0.95798   0.10756
H          H       0.18304   0.50357   0.52260   0.09638
H          H       0.10266   0.55735   0.50296   0.11464
H          H       0.01360   0.42477   0.74183   0.10383
H          H       0.09297   0.37220   0.76487   0.10743
C          C       0.69272   0.90406   0.18492   0.04924
C          C       0.69451   0.84149   0.18158  -0.14860
C          C       0.73330   0.81136   0.23641  -0.00902
C          C       0.77297   0.84722   0.29120   0.21797
C          C       0.77557   0.90886   0.27540  -0.09115
C          C       0.73450   0.93677   0.22775  -0.15779
C          C       0.73241   0.74557   0.24021  -0.00921
C          C       0.68623   0.71374   0.26284   0.21973
C          C       0.68731   0.65105   0.26619  -0.07997
C          C       0.73441   0.62050   0.25167  -0.16364
C          C       0.78081   0.65037   0.23185   0.04786
C          C       0.77853   0.71193   0.22215  -0.13972
C          C       0.64680   0.93441   0.15405   0.07996
C          C       0.82009   0.94364   0.31620   0.07420
C          C       0.63983   0.61675   0.27118   0.07980
C          C       0.83015   0.61877   0.22675   0.06975
C          C       0.83174   0.56896   0.31083  -0.14266
C          C       0.87805   0.53934   0.30940  -0.12734
C          C       0.92465   0.55768   0.22073   0.04571
C          C       0.92337   0.60758   0.13658  -0.10710
C          C       0.87711   0.63761   0.14032  -0.12885
C          C       0.59405   0.63554   0.38981  -0.16672
C          C       0.54913   0.60408   0.38424  -0.09736
C          C       0.54837   0.55269   0.25927   0.04857
C          C       0.59419   0.53299   0.14312  -0.12077
C          C       0.63910   0.56412   0.15008  -0.12885
C          C       0.87075   0.92114   0.24481  -0.15772
C          C       0.91304   0.95343   0.28001  -0.09575
C          C       0.90645   0.00972   0.38963   0.05173
C          C       0.85621   0.03259   0.46025  -0.12766
C          C       0.81386   0.00026   0.42318  -0.13234
C          C       0.64947   0.98672   0.07908  -0.14226
C          C       0.60517   0.01572   0.05791  -0.12863
C          C       0.55633   0.99449   0.11683   0.04833
C          C       0.55341   0.94246   0.19372  -0.10688
C          C       0.59771   0.91278   0.21030  -0.12835
C          C       0.51021   0.02694   0.10160   0.06393
C          C       0.50139   0.52053   0.24363   0.06923
C          C       0.95071   0.04501   0.42186   0.06253
C          C       0.97229   0.52576   0.22529   0.06514
C          C       0.19477   0.39987   0.18180   0.05239
C          C       0.19470   0.33755   0.18431  -0.14643
C          C       0.23295   0.30665   0.23900  -0.00980
C          C       0.27454   0.34056   0.28565   0.21708
C          C       0.27907   0.40153   0.26377  -0.08888
C          C       0.23830   0.43084   0.21773  -0.16038
C          C       0.22990   0.24152   0.25041  -0.01103
C          C       0.18287   0.21348   0.29762   0.21791
C          C       0.18227   0.15146   0.31050  -0.07893
C          C       0.22891   0.11826   0.27896  -0.16218
C          C       0.27619   0.14428   0.23284   0.04929
C          C       0.27514   0.20536   0.21646  -0.13753
C          C       0.14896   0.43142   0.15323   0.06434
C          C       0.32614   0.43360   0.29294   0.06180
C          C       0.13381   0.11934   0.33998   0.07543
C          C       0.32518   0.10953   0.20795   0.06226
C          C       0.32818   0.05697   0.27973  -0.13746
C          C       0.37459   0.02519   0.26074  -0.14543
C          C       0.42041   0.04482   0.17046   0.19301
C          C       0.41750   0.09682   0.09557  -0.16840
C          C       0.37099   0.12816   0.11371  -0.12303
C          C       0.09006   0.14208   0.46383  -0.16581
C          C       0.04406   0.11169   0.47737  -0.16245
C          C       0.04056   0.05656   0.36866   0.19623
C          C       0.08512   0.03196   0.25308  -0.13848
C          C       0.13034   0.06301   0.23710  -0.12273
C          C       0.37497   0.40764   0.21222  -0.14792
C          C       0.41985   0.43712   0.23424  -0.17349
C          C       0.41765   0.49419   0.33846   0.20433
C          C       0.36924   0.51938   0.42473  -0.14424
C          C       0.32442   0.49005   0.39972  -0.12020
C          C       0.15120   0.48533   0.08541  -0.12969
C          C       0.10678   0.51583   0.07091  -0.15378
C          C       0.05788   0.49464   0.12937   0.20707
C          C       0.05541   0.43976   0.19256  -0.17537
C          C       0.09990   0.40915   0.20460  -0.11831
C          C       0.69412   0.91034   0.68216   0.04761
C          C       0.69420   0.84761   0.67739  -0.14770
C          C       0.73144   0.81601   0.73516  -0.00711
C          C       0.77142   0.85017   0.79421   0.21712
C          C       0.77581   0.91190   0.78118  -0.09027
C          C       0.73611   0.94142   0.73051  -0.15896
C          C       0.72878   0.75034   0.74014  -0.01044
C          C       0.68187   0.72005   0.76657   0.21871
C          C       0.68158   0.65770   0.77624  -0.08233
C          C       0.72837   0.62607   0.76024  -0.16174
C          C       0.77551   0.65433   0.73497   0.04726
C          C       0.77423   0.71557   0.72105  -0.13640
C          C       0.64954   0.94245   0.64792   0.07762
C          C       0.82106   0.94498   0.82384   0.07619
C          C       0.63335   0.62442   0.78803   0.08200
C          C       0.82465   0.62197   0.72868   0.07040
C          C       0.82588   0.57035   0.80565  -0.14661
C          C       0.87205   0.54035   0.80396  -0.12564
C          C       0.91901   0.55978   0.72096   0.04671
C          C       0.91812   0.61111   0.64248  -0.10737
C          C       0.87201   0.64169   0.64760  -0.12840
C          C       0.58756   0.64583   0.90392  -0.17052
C          C       0.54199   0.61517   0.90275  -0.09544
C          C       0.54049   0.56201   0.78445   0.04615
C          C       0.58634   0.53956   0.67253  -0.11670
C          C       0.63188   0.56974   0.67542  -0.13233
C          C       0.87129   0.92104   0.75176  -0.15505
C          C       0.91433   0.95235   0.78427  -0.09634
C          C       0.90907   0.00906   0.89156   0.05033
C          C       0.85927   0.03308   0.96435  -0.12614
C          C       0.81611   0.00176   0.93007  -0.13317
C          C       0.65373   0.99637   0.58030  -0.14248
C          C       0.61035   0.02748   0.55970  -0.13381
C          C       0.56087   0.00631   0.60967   0.04980
C          C       0.55647   0.95234   0.67758  -0.10545
C          C       0.59979   0.92113   0.69564  -0.12434
C          C       0.51532   0.04052   0.59675   0.05921
C          C       0.49324   0.53048   0.76730   0.06550
C          C       0.95411   0.04365   0.91965   0.06433
C          C       0.96653   0.52741   0.72476   0.06237
C          C       0.19035   0.40326   0.67517   0.04870
C          C       0.19125   0.34075   0.67486  -0.14532
C          C       0.22988   0.31062   0.72965  -0.01105
C          C       0.27011   0.34574   0.78218   0.21746
C          C       0.27385   0.40700   0.76287  -0.08763
C          C       0.23300   0.43528   0.71441  -0.15948
C          C       0.22869   0.24520   0.73802  -0.01052
C          C       0.18273   0.21513   0.78461   0.21710
C          C       0.18410   0.15317   0.79799  -0.07771
C          C       0.23170   0.12207   0.76603  -0.16049
C          C       0.27806   0.14999   0.71866   0.04840
C          C       0.27499   0.21095   0.70250  -0.13688
C          C       0.14419   0.43426   0.64789   0.06829
C          C       0.31973   0.44039   0.79805   0.06560
C          C       0.13656   0.11924   0.82968   0.07447
C          C       0.32809   0.11729   0.69299   0.06344
C          C       0.33242   0.06432   0.76163  -0.13666
C          C       0.37951   0.03395   0.74151  -0.14245
C          C       0.42487   0.05547   0.65392   0.19530
C          C       0.42076   0.10810   0.58239  -0.16836
C          C       0.37346   0.13794   0.60125  -0.12230
C          C       0.09346   0.14040   0.95825  -0.16472
C          C       0.04788   0.10914   0.97439  -0.16279
C          C       0.04390   0.05492   0.86238   0.19647
C          C       0.08805   0.03157   0.74249  -0.13954
C          C       0.13302   0.06325   0.72509  -0.12161
C          C       0.36940   0.41504   0.72676  -0.14830
C          C       0.41325   0.44587   0.75369  -0.16680
C          C       0.40934   0.50384   0.85400   0.20344
C          C       0.35999   0.52882   0.92958  -0.14881
C          C       0.31617   0.49802   0.89972  -0.12552
C          C       0.14594   0.48706   0.57498  -0.13089
C          C       0.10113   0.51730   0.56288  -0.14966
C          C       0.05252   0.49683   0.62814   0.20092
C          C       0.05058   0.44277   0.69540  -0.17288
C          C       0.09539   0.41246   0.70555  -0.11895
N          N       0.46514   0.01148   0.17035  -0.29576
N          N       0.99667   0.02303   0.35852  -0.28926
N          N       0.46121   0.52716   0.36480  -0.29366
N          N       0.01456   0.52875   0.11705  -0.29593
N          N       0.46991   0.02272   0.65297  -0.29564
N          N      -0.00012   0.02132   0.85384  -0.28978
N          N       0.45213   0.53775   0.88486  -0.29146
N          N       0.00896   0.53100   0.61785  -0.29433
O          O       0.80844   0.82201   0.36609  -0.42610
O          O       0.64016   0.74421   0.27580  -0.42251
O          O       0.31023   0.31399   0.35739  -0.43331
O          O       0.13758   0.24718   0.32569  -0.42313
O          O       0.80555   0.82294   0.86981  -0.42563
O          O       0.63674   0.75199   0.77665  -0.41907
O          O       0.30515   0.31972   0.85741  -0.43529
O          O       0.13647   0.24676   0.81114  -0.42290

