data_crystal

_audit_creation_method 'AiiDA-DDEC plugin'

_cell_length_a        36.04380
_cell_length_b        36.04058
_cell_length_c         7.87801

_cell_angle_alpha     89.57365
_cell_angle_beta     92.80955
_cell_angle_gamma     119.76325

_symmetry_space_group_name_Hall 'P 1'
_symmetry_space_group_name_H-M  'P 1'

loop_
_symmetry_equiv_pos_as_xyz
 'x,y,z'

loop_
_atom_site_label
_atom_site_type_symbol
_atom_site_fract_x
_atom_site_fract_y
_atom_site_fract_z
_atom_site_charge
H          H       0.45761   0.61617   0.57676   0.11261
H          H       0.38378   0.84205   0.57429   0.11345
H          H       0.15794   0.54289   0.55988   0.11208
H          H       0.54319   0.38362   0.55935   0.11445
H          H       0.61541   0.15914   0.55545   0.11285
H          H       0.84111   0.45824   0.53252   0.11354
H          H       0.42511   0.66319   0.53590   0.11557
H          H       0.33636   0.76293   0.53061   0.11456
H          H       0.23673   0.57465   0.52600   0.11491
H          H       0.57471   0.33626   0.51214   0.11446
H          H       0.66286   0.23772   0.51068   0.11552
H          H       0.76135   0.42532   0.48856   0.11471
H          H       0.31701   0.56166   0.25976   0.11440
H          H       0.43530   0.75725   0.26918   0.11508
H          H       0.23891   0.68026   0.26156   0.11473
H          H       0.67817   0.43814   0.25804   0.11387
H          H       0.55972   0.24156   0.22929   0.11508
H          H       0.75563   0.31897   0.22170   0.11740
H          H       0.35106   0.51604   0.28643   0.10597
H          H       0.48090   0.83653   0.29826   0.10626
H          H       0.15989   0.64701   0.28396   0.10573
H          H       0.64516   0.48413   0.29269   0.10582
H          H       0.51383   0.16248   0.25970   0.10432
H          H       0.83540   0.35374   0.25084   0.10630
H          H       0.49049   0.90655   0.38411   0.07107
H          H       0.09056   0.58687   0.37164   0.07006
H          H       0.41332   0.50731   0.37756   0.07001
H          H       0.50420   0.09377   0.35753   0.06860
H          H       0.90638   0.41786   0.33747   0.07224
H          H       0.58501   0.49290   0.37898   0.06949
H          H       0.42149   0.45961   0.09868   0.10863
H          H       0.54117   0.96147   0.09007   0.10900
H          H       0.04302   0.57961   0.07792   0.10551
H          H       0.57902   0.53545   0.07440   0.10610
H          H       0.46276   0.04180   0.07707   0.10756
H          H       0.96142   0.42166   0.06223   0.10762
H          H       0.43451   0.30880   0.23154   0.12467
H          H       0.69139   0.12497   0.24805   0.12413
H          H       0.88228   0.57223   0.18441   0.12393
H          H       0.57019   0.68851   0.21401   0.12425
H          H       0.31464   0.87860   0.22456   0.12445
H          H       0.12456   0.43090   0.20034   0.12365
H          H       0.49404   0.39001   0.26085   0.12584
H          H       0.60996   0.10192   0.26520   0.12617
H          H       0.90162   0.51114   0.22278   0.12589
H          H       0.51094   0.60808   0.24537   0.12448
H          H       0.39608   0.90088   0.25238   0.12271
H          H       0.10368   0.49067   0.23776   0.12689
H          H       0.64066   0.73658   0.52093   0.13799
H          H       0.27919   0.92477   0.37794   0.13068
H          H       0.06364   0.35181   0.33950   0.13087
H          H       0.36566   0.26609   0.47438   0.13442
H          H       0.71059   0.06410   0.40829   0.13201
H          H       0.90105   0.64029   0.56209   0.13660
H          H       0.65183   0.70687   0.37313   0.13378
H          H       0.28684   0.96454   0.52881   0.13176
H          H       0.02849   0.32233   0.50107   0.13138
H          H       0.33962   0.29501   0.41083   0.13629
H          H       0.71414   0.04177   0.60650   0.13000
H          H       0.92474   0.64132   0.36735   0.12990
H          H       0.64251   0.73482   0.07012   0.13719
H          H       0.26400   0.90267   0.07468   0.13601
H          H       0.09746   0.35789   0.03813   0.13661
H          H       0.34966   0.26250   0.11731   0.13325
H          H       0.74012   0.09715   0.11679   0.13588
H          H       0.96868   0.67688   0.03196   0.13085
H          H       0.45845   0.61467   0.07838   0.11429
H          H       0.38632   0.84307   0.07402   0.11353
H          H       0.15990   0.54149   0.04943   0.11423
H          H       0.54414   0.38218   0.05579   0.11421
H          H       0.61670   0.15872   0.06060   0.11362
H          H       0.84287   0.45943   0.03299   0.11366
H          H       0.42690   0.66261   0.03481   0.11566
H          H       0.33887   0.76391   0.03652   0.11553
H          H       0.23890   0.57364   0.01604   0.11405
H          H       0.57668   0.33576   0.00780   0.11336
H          H       0.66409   0.23739   0.01955   0.11524
H          H       0.76322   0.42607   0.98703   0.11424
H          H       0.31845   0.56167   0.75756   0.11669
H          H       0.43731   0.75686   0.77645   0.11702
H          H       0.24116   0.68022   0.75974   0.11697
H          H       0.67948   0.43855   0.75464   0.11358
H          H       0.56179   0.24145   0.73223   0.11599
H          H       0.75825   0.31941   0.72675   0.11752
H          H       0.35174   0.51529   0.78685   0.10566
H          H       0.48318   0.83613   0.80115   0.10649
H          H       0.16194   0.64643   0.77974   0.10557
H          H       0.64536   0.48362   0.78954   0.10456
H          H       0.51577   0.16253   0.76071   0.10475
H          H       0.83789   0.35432   0.75797   0.10652
H          H       0.49192   0.90722   0.87802   0.07151
H          H       0.09314   0.58630   0.86467   0.06931
H          H       0.41519   0.50736   0.87059   0.07041
H          H       0.50658   0.09257   0.85860   0.06993
H          H       0.90812   0.41672   0.84678   0.07196
H          H       0.58602   0.49230   0.88038   0.06866
H          H       0.42237   0.46237   0.59624   0.10705
H          H       0.53732   0.96044   0.59116   0.10800
H          H       0.03989   0.57860   0.58840   0.10713
H          H       0.57991   0.53801   0.57494   0.10640
H          H       0.46069   0.04231   0.56451   0.10766
H          H       0.95878   0.42090   0.55226   0.10671
H          H       0.43435   0.31090   0.73229   0.12548
H          H       0.69001   0.12480   0.72666   0.12418
H          H       0.87498   0.56511   0.69584   0.12406
H          H       0.57049   0.69240   0.68748   0.12446
H          H       0.31065   0.88102   0.71547   0.12431
H          H       0.11971   0.42661   0.67977   0.12448
H          H       0.49342   0.39171   0.76937   0.12586
H          H       0.60921   0.10430   0.74177   0.12502
H          H       0.89776   0.50614   0.72838   0.12392
H          H       0.51089   0.61242   0.72444   0.12554
H          H       0.39164   0.90151   0.74291   0.12580
H          H       0.10196   0.48866   0.71736   0.12707
H          H       0.64050   0.71012   0.87212   0.12938
H          H       0.28537   0.93168   0.88693   0.13056
H          H       0.07012   0.35698   0.84233   0.12857
H          H       0.36382   0.27430   0.90237   0.13062
H          H       0.71857   0.08253   0.90399   0.12875
H          H       0.91228   0.64822   0.04876   0.13576
H          H       0.67344   0.70933   0.04564   0.12894
H          H       0.28728   0.95924   0.07574   0.12954
H          H       0.04081   0.32654   0.01532   0.12899
H          H       0.32940   0.29005   0.99028   0.13222
H          H       0.71368   0.04264   0.04820   0.13043
H          H       0.93501   0.64723   0.85416   0.12996
H          H       0.67518   0.71631   0.58391   0.12953
H          H       0.26175   0.91004   0.58746   0.13556
H          H       0.08470   0.34853   0.54507   0.13573
H          H       0.33535   0.27579   0.62115   0.12582
H          H       0.73687   0.09800   0.58919   0.13706
H          H       0.95737   0.67210   0.54567   0.13026
C          C       0.40613   0.56286   0.43774   0.06042
C          C       0.43559   0.84432   0.44171   0.06017
C          C       0.15386   0.59308   0.42718   0.06086
C          C       0.59226   0.43682   0.43029   0.06378
C          C       0.56150   0.15596   0.41262   0.05856
C          C       0.84312   0.40775   0.39767   0.06204
C          C       0.42698   0.60475   0.50686  -0.10350
C          C       0.39441   0.82318   0.50610  -0.10422
C          C       0.17598   0.57268   0.49355  -0.10261
C          C       0.57232   0.39477   0.49139  -0.10496
C          C       0.60388   0.17747   0.48251  -0.10162
C          C       0.82200   0.42805   0.46348  -0.10616
C          C       0.40905   0.63080   0.48344  -0.10423
C          C       0.36824   0.77945   0.48202  -0.10296
C          C       0.21954   0.59027   0.47472  -0.10409
C          C       0.58976   0.36871   0.46529  -0.10255
C          C       0.63008   0.22085   0.45738  -0.10435
C          C       0.77805   0.40989   0.43915  -0.10168
C          C       0.36886   0.61508   0.39663   0.00642
C          C       0.38309   0.75530   0.39872   0.00230
C          C       0.24262   0.62966   0.39380   0.00317
C          C       0.62837   0.38447   0.38281   0.00274
C          C       0.61391   0.24418   0.36820   0.00610
C          C       0.75381   0.37001   0.35495   0.00353
C          C       0.34785   0.57336   0.32792  -0.10260
C          C       0.42425   0.77601   0.33572  -0.10118
C          C       0.22088   0.65016   0.32636  -0.10156
C          C       0.64867   0.42650   0.32361  -0.10091
C          C       0.57163   0.22315   0.29941  -0.10372
C          C       0.77458   0.34951   0.28875  -0.10435
C          C       0.36683   0.54787   0.34484  -0.12938
C          C       0.44978   0.82024   0.35380  -0.12988
C          C       0.17677   0.63154   0.34008  -0.13097
C          C       0.63024   0.45209   0.34414  -0.13198
C          C       0.54608   0.17920   0.31822  -0.12849
C          C       0.81906   0.36889   0.30640  -0.12930
C          C       0.34891   0.64224   0.38390   0.37614
C          C       0.35568   0.70845   0.38531   0.37653
C          C       0.28942   0.64917   0.38428   0.37798
C          C       0.64759   0.35707   0.36289   0.37584
C          C       0.64096   0.29088   0.35450   0.37780
C          C       0.70680   0.35010   0.34672   0.37604
C          C       0.46243   0.89066   0.46235   0.06756
C          C       0.10787   0.57400   0.44802   0.06933
C          C       0.42591   0.53609   0.45948   0.07086
C          C       0.53412   0.11015   0.43744   0.06951
C          C       0.88956   0.42766   0.42368   0.07237
C          C       0.57334   0.46385   0.45515   0.06589
C          C       0.47921   0.95652   0.07879   0.17430
C          C       0.04726   0.52241   0.06148   0.17457
C          C       0.47818   0.52073   0.08107   0.17826
C          C       0.52433   0.04642   0.07000   0.17488
C          C       0.95700   0.47896   0.05733   0.17339
C          C       0.52191   0.47420   0.07134   0.16906
C          C       0.45607   0.47605   0.08909  -0.23355
C          C       0.52408   0.97931   0.08381  -0.23055
C          C       0.02484   0.54484   0.07055  -0.23076
C          C       0.54424   0.51909   0.07538  -0.22658
C          C       0.47967   0.02379   0.07692  -0.22942
C          C       0.97951   0.45644   0.06127  -0.22922
C          C       0.47686   0.45187   0.09112   0.03133
C          C       0.54766   0.02406   0.08811   0.02854
C          C       0.98013   0.52440   0.07505   0.02743
C          C       0.52385   0.54339   0.08647   0.02484
C          C       0.45627   0.97919   0.08986   0.02621
C          C       0.02432   0.47689   0.06960   0.02761
C          C       0.54831   0.59002   0.09422  -0.02171
C          C       0.40996   0.95685   0.10395  -0.01942
C          C       0.04647   0.45220   0.07716  -0.01974
C          C       0.45268   0.40538   0.10356  -0.02161
C          C       0.59438   0.04700   0.10433  -0.02168
C          C       0.95853   0.54950   0.08326  -0.01809
C          C       0.39579   0.32810   0.07596   0.06733
C          C       0.67202   0.06857   0.09005   0.06413
C          C       0.94048   0.60828   0.04961   0.06971
C          C       0.60540   0.66679   0.06670   0.06743
C          C       0.33211   0.93567   0.07770   0.06631
C          C       0.06620   0.39496   0.04195   0.06694
C          C       0.43162   0.33466   0.17265  -0.19403
C          C       0.66539   0.09653   0.18567  -0.19333
C          C       0.91071   0.57369   0.13641  -0.19736
C          C       0.57159   0.66177   0.15839  -0.19360
C          C       0.33987   0.90717   0.16912  -0.19564
C          C       0.09574   0.42919   0.14244  -0.19324
C          C       0.46386   0.37822   0.18788  -0.14848
C          C       0.62164   0.08454   0.19373  -0.15282
C          C       0.92074   0.54042   0.15549  -0.15527
C          C       0.53933   0.61856   0.17411  -0.15690
C          C       0.38373   0.91900   0.18403  -0.15170
C          C       0.08477   0.46159   0.16227  -0.15536
C          C       0.64258   0.70735   0.01112  -0.41482
C          C       0.29010   0.93235   0.02611  -0.41307
C          C       0.06858   0.35702   0.98158  -0.41554
C          C       0.35764   0.28663   0.01877  -0.41242
C          C       0.71321   0.07282   0.03748  -0.41331
C          C       0.93918   0.64729   0.99349  -0.41419
C          C       0.40692   0.56189   0.93761   0.06040
C          C       0.43787   0.84469   0.94176   0.06087
C          C       0.15629   0.59254   0.92171   0.06190
C          C       0.59281   0.43585   0.92685   0.06169
C          C       0.56309   0.15573   0.91599   0.05996
C          C       0.84534   0.40854   0.90204   0.06070
C          C       0.42807   0.60372   0.00723  -0.10412
C          C       0.39682   0.82387   0.00733  -0.10352
C          C       0.17819   0.57171   0.98580  -0.10332
C          C       0.57338   0.39381   0.98811  -0.10394
C          C       0.60535   0.17718   0.98739  -0.10352
C          C       0.82403   0.42897   0.96527  -0.10432
C          C       0.41061   0.63016   0.98280  -0.10322
C          C       0.37054   0.78003   0.98599  -0.10410
C          C       0.22177   0.58951   0.96707  -0.10396
C          C       0.59136   0.36827   0.96175  -0.10325
C          C       0.63153   0.22066   0.96418  -0.10473
C          C       0.78004   0.41053   0.94016  -0.10216
C          C       0.37071   0.61487   0.89444   0.00575
C          C       0.38527   0.75552   0.90442   0.00330
C          C       0.24492   0.62940   0.88986   0.00405
C          C       0.63004   0.38443   0.87950   0.00201
C          C       0.61568   0.24417   0.87437   0.00476
C          C       0.75586   0.37035   0.85807   0.00409
C          C       0.34923   0.57308   0.82607  -0.10492
C          C       0.42638   0.77597   0.84097  -0.10516
C          C       0.22320   0.65003   0.82362  -0.10468
C          C       0.64984   0.42644   0.81975  -0.10153
C          C       0.57356   0.22308   0.80348  -0.10503
C          C       0.77693   0.35002   0.79331  -0.10481
C          C       0.36776   0.54724   0.84420  -0.12912
C          C       0.45198   0.82025   0.85608  -0.13064
C          C       0.17909   0.63122   0.83614  -0.12956
C          C       0.63085   0.45153   0.84054  -0.12892
C          C       0.54791   0.17906   0.82076  -0.12900
C          C       0.82138   0.36950   0.81197  -0.12931
C          C       0.35119   0.64240   0.88201   0.37645
C          C       0.35790   0.70863   0.89023   0.37491
C          C       0.29174   0.64923   0.88345   0.37623
C          C       0.64948   0.35716   0.86167   0.37642
C          C       0.64293   0.29090   0.86025   0.37682
C          C       0.70877   0.35016   0.85009   0.37672
C          C       0.46484   0.89109   0.96111   0.06729
C          C       0.11041   0.57369   0.94294   0.07009
C          C       0.42643   0.53486   0.95881   0.07287
C          C       0.53597   0.10981   0.94070   0.06962
C          C       0.89172   0.42806   0.92847   0.06906
C          C       0.57348   0.46249   0.95216   0.06545
C          C       0.47577   0.95628   0.57413   0.17530
C          C       0.04441   0.52176   0.56224   0.17258
C          C       0.47910   0.52345   0.57897   0.17679
C          C       0.52202   0.04623   0.56412   0.17388
C          C       0.95426   0.47787   0.55782   0.17443
C          C       0.52286   0.47685   0.57575   0.17056
C          C       0.45701   0.47877   0.58862  -0.23121
C          C       0.52067   0.97869   0.58239  -0.23069
C          C       0.02179   0.54390   0.57661  -0.22829
C          C       0.54516   0.52169   0.57704  -0.22765
C          C       0.47722   0.02393   0.56763  -0.23004
C          C       0.97690   0.45567   0.55648  -0.23136
C          C       0.47778   0.45458   0.59437   0.03266
C          C       0.54485   0.02342   0.58618   0.03105
C          C       0.97704   0.52319   0.58061   0.02605
C          C       0.52481   0.54611   0.58534   0.02420
C          C       0.45314   0.97937   0.58102   0.02851
C          C       0.02167   0.47617   0.56440   0.02936
C          C       0.54954   0.59279   0.59029  -0.01853
C          C       0.40671   0.95763   0.59321  -0.01748
C          C       0.04316   0.45090   0.56621  -0.01724
C          C       0.45351   0.40808   0.60674  -0.02339
C          C       0.59154   0.04550   0.60359  -0.01930
C          C       0.95455   0.54737   0.59288  -0.01944
C          C       0.39664   0.33078   0.57203   0.07008
C          C       0.66876   0.06490   0.59106   0.06950
C          C       0.93290   0.60373   0.56273   0.06444
C          C       0.60749   0.66933   0.55992   0.07078
C          C       0.32917   0.93807   0.56805   0.06540
C          C       0.05941   0.39107   0.53273   0.07024
C          C       0.43177   0.33692   0.67287  -0.19801
C          C       0.66327   0.09539   0.67334  -0.19405
C          C       0.90406   0.56806   0.64765  -0.19259
C          C       0.57268   0.66517   0.64200  -0.19477
C          C       0.33630   0.90926   0.66003  -0.19594
C          C       0.09089   0.42563   0.62599  -0.19462
C          C       0.46391   0.38050   0.69247  -0.14898
C          C       0.61983   0.08458   0.68085  -0.15187
C          C       0.91610   0.53619   0.66456  -0.15260
C          C       0.54016   0.62214   0.66030  -0.15784
C          C       0.37989   0.92008   0.67403  -0.15353
C          C       0.08185   0.45941   0.64471  -0.15510
C          C       0.64600   0.70929   0.50722  -0.41696
C          C       0.28720   0.93446   0.51286  -0.41309
C          C       0.05889   0.35127   0.47674  -0.41510
C          C       0.35726   0.28985   0.51721  -0.41208
C          C       0.70963   0.06702   0.54678  -0.41625
C          C       0.92901   0.64148   0.50685  -0.41347
S          S       0.40183   0.37614   0.00554   0.06941
S          S       0.62366   0.02688   0.01154   0.07134
S          S       0.98129   0.59974   0.99217   0.06844
S          S       0.59733   0.61754   0.00067   0.07346
S          S       0.37944   0.97758   0.01130   0.07193
S          S       0.02434   0.40281   0.97330   0.07427
S          S       0.40343   0.37919   0.50265   0.06806
S          S       0.61967   0.02226   0.52436   0.07057
S          S       0.97545   0.59791   0.50551   0.07238
S          S       0.59981   0.61948   0.50576   0.07333
S          S       0.37689   0.97924   0.50077   0.06842
S          S       0.01831   0.40050   0.46889   0.06910
N          N       0.37531   0.68492   0.38248  -0.41177
N          N       0.31294   0.69221   0.38524  -0.41246
N          N       0.30584   0.62270   0.38282  -0.41393
N          N       0.62135   0.31435   0.36262  -0.41340
N          N       0.68348   0.30701   0.34432  -0.41473
N          N       0.69042   0.37650   0.35368  -0.41070
N          N       0.45553   0.91200   0.06709  -0.25918
N          N       0.09138   0.54249   0.04573  -0.25997
N          N       0.45726   0.54458   0.07105  -0.25542
N          N       0.54781   0.09052   0.05063  -0.25853
N          N       0.91240   0.45860   0.03944  -0.26176
N          N       0.54186   0.45003   0.05006  -0.26407
N          N       0.37754   0.68510   0.88446  -0.41332
N          N       0.31515   0.69228   0.89063  -0.41157
N          N       0.30814   0.62282   0.87798  -0.41234
N          N       0.62332   0.31442   0.86435  -0.41280
N          N       0.68556   0.30708   0.85221  -0.41513
N          N       0.69230   0.37656   0.85224  -0.41110
N          N       0.45193   0.91178   0.56248  -0.26130
N          N       0.08861   0.54215   0.54801  -0.25929
N          N       0.45817   0.54722   0.56606  -0.25777
N          N       0.54600   0.09029   0.54412  -0.26090
N          N       0.90967   0.45699   0.53968  -0.26226
N          N       0.54275   0.45251   0.55759  -0.26108

