data_crystal

_audit_creation_method 'AiiDA-DDEC plugin'

_cell_length_a        36.17153
_cell_length_b        36.35583
_cell_length_c         8.11322

_cell_angle_alpha     90.05395
_cell_angle_beta     116.87629
_cell_angle_gamma     119.54267

_symmetry_space_group_name_Hall 'P 1'
_symmetry_space_group_name_H-M  'P 1'

loop_
_symmetry_equiv_pos_as_xyz
 'x,y,z'

loop_
_atom_site_label
_atom_site_type_symbol
_atom_site_fract_x
_atom_site_fract_y
_atom_site_fract_z
_atom_site_charge
H          H       0.90120   0.27665   0.56642   0.14698
H          H       0.74325   0.62409   0.55457   0.14893
H          H       0.32768   0.04975   0.33769   0.13198
H          H       0.11393   0.74112   0.49984   0.14460
H          H       0.26076   0.38201   0.46591   0.14690
H          H       0.61589   0.88296   0.42378   0.14807
H          H       0.07763   0.72033   0.10404   0.13135
H          H       0.29729   0.34824   0.09836   0.12632
H          H       0.65876   0.93293   0.09032   0.13027
H          H       0.89011   0.26539   0.07725   0.14738
H          H       0.73591   0.66119   0.16601   0.13128
H          H       0.35474   0.07284   0.07185   0.13404
H          H       0.72601   0.29295   0.84684   0.11112
H          H       0.69230   0.43827   0.97249   0.11102
H          H       0.55610   0.25169   0.03808   0.11046
H          H       0.26437   0.69693   0.14269   0.11027
H          H       0.29038   0.54958   0.91492   0.11303
H          H       0.44494   0.74603   0.02858   0.10877
H          H       0.80418   0.32172   0.84988   0.10652
H          H       0.66659   0.48946   0.96006   0.09888
H          H       0.50889   0.17694   0.05991   0.09958
H          H       0.18784   0.66774   0.15163   0.10599
H          H       0.31675   0.49879   0.91105   0.10001
H          H       0.49411   0.82101   0.01980   0.09835
H          H       0.85740   0.45345   0.11868   0.11328
H          H       0.54498   0.39407   0.01950   0.10786
H          H       0.59263   0.14213   0.93240   0.11288
H          H       0.13444   0.53617   0.88266   0.11016
H          H       0.46389   0.60933   0.09145   0.11014
H          H       0.38708   0.84569   0.99168   0.11014
H          H       0.77653   0.42454   0.09862   0.11361
H          H       0.56942   0.34076   0.01678   0.11043
H          H       0.64335   0.21917   0.92783   0.11261
H          H       0.21454   0.56543   0.89410   0.11163
H          H       0.43543   0.66017   0.07889   0.10974
H          H       0.33810   0.76928   0.00893   0.10856
H          H       0.03950   0.45825   0.00436   0.12166
H          H       0.53486   0.57817   0.00453   0.12696
H          H       0.41864   0.95569   0.02105   0.12722
H          H       0.95522   0.53227   0.01972   0.12327
H          H       0.46458   0.42046   0.00666   0.12660
H          H       0.57651   0.04025   0.01536   0.12565
H          H       0.86228   0.31876   0.04851   0.13338
H          H       0.68527   0.54427   0.02967   0.13004
H          H       0.44336   0.13020   0.92573   0.13014
H          H       0.13093   0.67124   0.96807   0.12997
H          H       0.32359   0.45918   0.04798   0.13248
H          H       0.53170   0.85571   0.93933   0.12637
H          H       0.95541   0.29166   0.18240   0.13025
H          H       0.70458   0.64424   0.91026   0.12006
H          H       0.31898   0.04785   0.81864   0.13317
H          H       0.04293   0.70038   0.84852   0.12940
H          H       0.25973   0.34691   0.85942   0.13319
H          H       0.62806   0.92780   0.83919   0.12974
H          H       0.91515   0.26947   0.92868   0.13198
H          H       0.74105   0.62412   0.04854   0.14907
H          H       0.36301   0.10598   0.91483   0.14418
H          H       0.10879   0.72751   0.97749   0.14768
H          H       0.27171   0.38056   0.05951   0.14707
H          H       0.60863   0.88016   0.92150   0.14764
H          H       0.07320   0.72771   0.58793   0.13149
H          H       0.29407   0.35886   0.60042   0.12327
H          H       0.66626   0.93550   0.59392   0.13235
H          H       0.96705   0.30830   0.72478   0.12886
H          H       0.73811   0.66125   0.67237   0.13144
H          H       0.36883   0.10812   0.40345   0.14315
H          H       0.73586   0.30101   0.35094   0.11336
H          H       0.69254   0.44128   0.45058   0.10960
H          H       0.56337   0.25598   0.52807   0.11046
H          H       0.27370   0.70804   0.65466   0.10703
H          H       0.31615   0.56513   0.58654   0.10240
H          H       0.45124   0.75074   0.52920   0.11003
H          H       0.81448   0.33173   0.35506   0.10576
H          H       0.66306   0.48960   0.43365   0.09900
H          H       0.51634   0.18122   0.54917   0.10256
H          H       0.19669   0.68117   0.65810   0.10418
H          H       0.34577   0.51665   0.60463   0.09596
H          H       0.50260   0.82652   0.52846   0.09779
H          H       0.86458   0.46214   0.62390   0.11058
H          H       0.55094   0.39537   0.54203   0.10734
H          H       0.60261   0.14787   0.43339   0.11274
H          H       0.13973   0.54846   0.38557   0.11267
H          H       0.44626   0.60352   0.43182   0.10222
H          H       0.39388   0.85122   0.47804   0.11026
H          H       0.78336   0.43127   0.60466   0.11354
H          H       0.57783   0.34425   0.53750   0.11094
H          H       0.65390   0.22555   0.43399   0.11196
H          H       0.21953   0.57536   0.39968   0.11441
H          H       0.42009   0.65524   0.43622   0.10627
H          H       0.34350   0.77485   0.49175   0.11091
H          H       0.04727   0.47108   0.50026   0.12321
H          H       0.53637   0.57928   0.49467   0.12459
H          H       0.42905   0.96176   0.52850   0.12723
H          H       0.96053   0.54259   0.51473   0.12298
H          H       0.46669   0.42311   0.51976   0.12615
H          H       0.58544   0.04513   0.51123   0.12572
H          H       0.87371   0.33057   0.55946   0.13221
H          H       0.68805   0.54479   0.54608   0.12926
H          H       0.45091   0.13434   0.41898   0.12964
H          H       0.13916   0.68580   0.48916   0.13293
H          H       0.31622   0.45989   0.47108   0.13095
H          H       0.53761   0.85933   0.42847   0.12668
H          H       0.94082   0.28809   0.47428   0.13156
H          H       0.70760   0.64504   0.41659   0.12202
H          H       0.36763   0.08076   0.58451   0.13371
H          H       0.04834   0.71119   0.33679   0.12995
H          H       0.26401   0.34381   0.34467   0.13141
H          H       0.63682   0.93062   0.34291   0.12703
C          C       0.74658   0.35685   0.97506  -0.00024
C          C       0.63307   0.38635  -0.00191   0.00005
C          C       0.60269   0.24048   0.98024   0.00354
C          C       0.24400   0.63318   0.01427   0.00491
C          C       0.36143   0.60812   0.00042   0.00718
C          C       0.38842   0.75253   0.02123   0.00728
C          C       0.75516   0.32799   0.90813  -0.10357
C          C       0.66040   0.42893   0.98544  -0.09651
C          C       0.56347   0.22737   0.01190  -0.10749
C          C       0.23550   0.66182   0.08342  -0.10364
C          C       0.32842   0.56238   0.95428  -0.09620
C          C       0.43251   0.76806   0.02199  -0.10747
C          C       0.79985   0.34427   0.91520  -0.13178
C          C       0.64583   0.45807   0.98150  -0.13047
C          C       0.53569   0.18448   0.01746  -0.13173
C          C       0.19156   0.64527   0.08253  -0.12872
C          C       0.34403   0.53407   0.95715  -0.12901
C          C       0.45986   0.81073   0.01407  -0.12878
C          C       0.83787   0.38965   0.99536   0.04934
C          C       0.60413   0.44629   0.99483   0.04697
C          C       0.54511   0.15268   0.98621   0.04648
C          C       0.15388   0.59983   0.00564   0.04846
C          C       0.39352   0.55060   0.01168   0.04967
C          C       0.44411   0.83973   0.00206   0.05065
C          C       0.82841   0.41841   0.05859  -0.10652
C          C       0.57689   0.40321   0.00715  -0.10413
C          C       0.58476   0.16627   0.95519  -0.11482
C          C       0.16309   0.57129   0.93895  -0.10118
C          C       0.42605   0.59662   0.05426  -0.09803
C          C       0.39937   0.82351  -0.00053  -0.11002
C          C       0.78349   0.40240   0.04719  -0.09097
C          C       0.59066   0.37374   0.00689  -0.10038
C          C       0.61319   0.20925   0.95362  -0.09572
C          C       0.20752   0.58753   0.94536  -0.09106
C          C       0.41027   0.62477   0.04677  -0.09723
C          C       0.37223   0.78107   0.00947  -0.09532
C          C       0.88647   0.40901   0.00968   0.17701
C          C       0.58700   0.47580  -0.00048   0.17871
C          C       0.51775   0.10669   0.99408   0.17808
C          C       0.10647   0.58059   0.00125   0.18366
C          C       0.41283   0.52263   0.01549   0.17863
C          C       0.47186   0.88608  -0.00329   0.17966
C          C       0.95276   0.47231   0.01635   0.19218
C          C       0.52344   0.47802   0.00295   0.19488
C          C       0.51874   0.04278   0.01647   0.19606
C          C       0.04168   0.51805   0.00563   0.20311
C          C       0.47601   0.52064   0.00877   0.19577
C          C       0.47551   0.95252   0.01319   0.20002
C          C       0.97723   0.45081   0.01465   0.00602
C          C       0.54431   0.52366   0.00438   0.00259
C          C       0.47296   0.01840   0.01680   0.00172
C          C       0.01784   0.53988   0.01221   0.00759
C          C       0.45529   0.47500   0.00832   0.00047
C          C       0.52133   0.97702   0.01352  -0.00136
C          C       0.02073   0.47388   0.00830  -0.19512
C          C       0.52018   0.54394   0.00588  -0.20092
C          C       0.45285   0.97434   0.01875  -0.19956
C          C       0.97419   0.51673   0.01714  -0.18846
C          C       0.47925   0.45469   0.00552  -0.20071
C          C       0.54232   0.02147   0.01790  -0.19667
C          C       0.29045   0.65034   0.01494   0.37512
C          C       0.34549   0.63821   0.00482   0.37169
C          C       0.35957   0.70697   0.02750   0.37209
C          C       0.70036   0.34066   0.97489   0.37160
C          C       0.64775   0.35525   0.99391   0.37907
C          C       0.63253   0.28613   0.97692   0.37282
C          C       0.41048   0.45430   0.01065  -0.02709
C          C       0.54064   0.95207   0.00103  -0.03380
C          C       0.04151   0.58442   0.00758  -0.02793
C          C       0.58982   0.54444   0.00755  -0.02827
C          C       0.45059   0.04212   0.00533  -0.03533
C          C       0.95392   0.40650   0.02256  -0.03047
C          C       0.08511   0.60545  -0.00040  -0.01473
C          C       0.38901   0.47718   0.01975  -0.01198
C          C       0.51667   0.90663   0.98692  -0.00681
C          C       0.90900   0.38475   0.02123  -0.01777
C          C       0.61284   0.52227   0.00891  -0.01003
C          C       0.47040   0.08508   0.98399  -0.01771
C          C       0.89428   0.34098   0.03719  -0.24012
C          C       0.65962   0.55224   0.02345  -0.23460
C          C       0.43765   0.09921   0.95314  -0.23686
C          C       0.10016   0.64943   0.98685  -0.23849
C          C       0.34525   0.44905   0.02828  -0.23371
C          C       0.54340   0.88990   0.96545  -0.23179
C          C       0.92605   0.32981   0.04524   0.07077
C          C       0.67081   0.59433   0.02908   0.08872
C          C       0.39605   0.06904   0.95671   0.08500
C          C       0.07021   0.66156   0.99180   0.07350
C          C       0.33304   0.40659   0.01765   0.08608
C          C       0.58584   0.92118   0.96988   0.08959
C          C       0.92164   0.28696   0.05934  -0.40879
C          C       0.71548   0.63307   0.03977  -0.41475
C          C       0.35593   0.07401   0.93876  -0.41412
C          C       0.07500   0.70461   0.97990  -0.41246
C          C       0.28818   0.36845   0.00828  -0.41980
C          C       0.62237   0.91532   0.95467  -0.41378
C          C       0.75486   0.36425   0.47944   0.00326
C          C       0.63777   0.38975   0.49810   0.00447
C          C       0.61143   0.24564   0.47818   0.00580
C          C       0.25158   0.64343   0.52718   0.00273
C          C       0.36592   0.61338   0.50912   0.00317
C          C       0.39423   0.75781   0.51201   0.00547
C          C       0.76442   0.33618   0.41301  -0.10495
C          C       0.66195   0.43157   0.47321  -0.10083
C          C       0.57149   0.23200   0.50550  -0.10880
C          C       0.24408   0.67314   0.59497  -0.10650
C          C       0.34448   0.57338   0.55175  -0.09802
C          C       0.43900   0.77303   0.51905  -0.11034
C          C       0.80933   0.35353   0.42048  -0.12730
C          C       0.64566   0.45932   0.46888  -0.13162
C          C       0.54397   0.18914   0.51102  -0.12679
C          C       0.20000   0.65796   0.59141  -0.13004
C          C       0.36045   0.54535   0.55596  -0.13124
C          C       0.46735   0.81583   0.51451  -0.12874
C          C       0.84645   0.39910   0.50007   0.04386
C          C       0.60591   0.44740   0.49665   0.04692
C          C       0.55405   0.15770   0.48195   0.04288
C          C       0.16142   0.61279   0.51377   0.04850
C          C       0.39687   0.55521   0.51014   0.04632
C          C       0.45158   0.84487   0.49795   0.04963
C          C       0.83624   0.42696   0.56468  -0.09969
C          C       0.58166   0.40504   0.52038  -0.10452
C          C       0.59448   0.17186   0.45527  -0.10815
C          C       0.16945   0.58328   0.44636  -0.10453
C          C       0.41799   0.59547   0.46655  -0.11089
C          C       0.40613   0.82894   0.48904  -0.11048
C          C       0.79114   0.40991   0.55306  -0.09470
C          C       0.59681   0.37667   0.51866  -0.10298
C          C       0.62305   0.21505   0.45588  -0.09966
C          C       0.21381   0.59815   0.45467  -0.09323
C          C       0.40335   0.62419   0.46859  -0.10299
C          C       0.37817   0.78653   0.49685  -0.09559
C          C       0.89462   0.41947   0.51045   0.18689
C          C       0.58826   0.47640   0.50280   0.17648
C          C       0.52652   0.11167   0.48895   0.17997
C          C       0.11384   0.59407   0.50741   0.17511
C          C       0.41511   0.52653   0.50973   0.18486
C          C       0.48002   0.89117   0.49436   0.18227
C          C       0.95922   0.48315   0.51083   0.20038
C          C       0.52505   0.47926   0.50704   0.19240
C          C       0.52793   0.04796   0.51354   0.19808
C          C       0.04823   0.53031   0.50228   0.19270
C          C       0.47814   0.52324   0.50790   0.19643
C          C       0.48492   0.95810   0.51440   0.19840
C          C       0.98429   0.46232   0.50826   0.00827
C          C       0.54554   0.52452   0.50205  -0.00035
C          C       0.48256   0.02392   0.51672   0.00381
C          C       0.02350   0.55129   0.50637   0.00610
C          C       0.45785   0.47808   0.51535  -0.00046
C          C       0.53030   0.98212   0.51129  -0.00460
C          C       0.02776   0.48604   0.50268  -0.18733
C          C       0.52177   0.54537   0.50108  -0.20106
C          C       0.46274   0.98016   0.52239  -0.19739
C          C       0.97977   0.52747   0.51070  -0.19405
C          C       0.48146   0.45712   0.51469  -0.19784
C          C       0.55138   0.02651   0.51467  -0.19951
C          C       0.29759   0.65875   0.52697   0.37146
C          C       0.35058   0.64401   0.51248   0.38095
C          C       0.36491   0.71270   0.52078   0.37291
C          C       0.70804   0.34713   0.47595   0.37675
C          C       0.65405   0.35989   0.49393   0.37670
C          C       0.64056   0.29137   0.47530   0.37135
C          C       0.41280   0.45814   0.51592  -0.02337
C          C       0.54918   0.95673   0.49838  -0.03672
C          C       0.04695   0.59600   0.50356  -0.03125
C          C       0.59100   0.54495   0.50498  -0.02520
C          C       0.46008   0.04749   0.50441  -0.03265
C          C       0.96218   0.41817   0.51839  -0.02754
C          C       0.09196   0.61849   0.50537  -0.01751
C          C       0.38974   0.48063   0.50745  -0.01387
C          C       0.52443   0.91118   0.48187  -0.01156
C          C       0.91795   0.39600   0.52169  -0.01677
C          C       0.61431   0.52282   0.51144  -0.01203
C          C       0.47926   0.09017   0.48006  -0.01779
C          C       0.90494   0.35289   0.54376  -0.23869
C          C       0.66174   0.55279   0.53065  -0.23171
C          C       0.44606   0.10380   0.44933  -0.23268
C          C       0.10697   0.66283   0.49804  -0.24294
C          C       0.34229   0.45138   0.48850  -0.23308
C          C       0.55047   0.89382   0.45887  -0.23102
C          C       0.93751   0.34276   0.55205   0.07480
C          C       0.67274   0.59470   0.53161   0.08604
C          C       0.40513   0.07369   0.45723   0.08292
C          C       0.07498   0.67335   0.49332   0.07160
C          C       0.33091   0.40944   0.48978   0.08588
C          C       0.59377   0.92492   0.46833   0.08824
C          C       0.93668   0.30183   0.58070  -0.41364
C          C       0.71789   0.63341   0.54515  -0.41507
C          C       0.36508   0.07821   0.44402  -0.41371
C          C       0.07775   0.71554   0.47893  -0.40762
C          C       0.28502   0.37139   0.47407  -0.41350
C          C       0.63024   0.91828   0.45685  -0.41334
S          S       0.97625   0.37314   0.04032   0.08454
S          S       0.62429   0.59929   0.01710   0.09410
S          S       0.39470   0.02135   0.99428   0.09330
S          S       0.02121   0.61887   0.00532   0.09072
S          S       0.37640   0.39982   0.00693   0.09232
S          S       0.59465   0.97288  -0.00298   0.08992
S          S       0.98595   0.38604   0.53793   0.09106
S          S       0.62546   0.59958   0.51163   0.08962
S          S       0.40480   0.02657   0.49814   0.09604
S          S       0.02467   0.62907   0.49373   0.08602
S          S       0.37789   0.40380   0.51203   0.09648
S          S       0.60376   0.97708   0.49932   0.08750
N          N       0.90892   0.45116   0.01327  -0.33065
N          N       0.54460   0.45608  -0.00199  -0.33288
N          N       0.53999   0.08558   0.01112  -0.33150
N          N       0.08445   0.53861   0.00030  -0.34087
N          N       0.45432   0.54240   0.01027  -0.33668
N          N       0.45313   0.90899   0.00747  -0.33501
N          N       0.30166   0.62107   0.99396  -0.40500
N          N       0.37573   0.68085   0.02085  -0.41320
N          N       0.31845   0.69379   0.03436  -0.41234
N          N       0.68978   0.37062   0.99200  -0.40875
N          N       0.61822   0.31344   0.99005  -0.42008
N          N       0.67234   0.29772   0.96243  -0.41166
N          N       0.91574   0.46143   0.51069  -0.34010
N          N       0.54602   0.45689   0.50302  -0.33292
N          N       0.54889   0.09063   0.50653  -0.33556
N          N       0.09154   0.55181   0.50192  -0.33156
N          N       0.45716   0.54580   0.50862  -0.33758
N          N       0.46240   0.91470   0.51008  -0.33280
N          N       0.30858   0.62877   0.51504  -0.40811
N          N       0.37968   0.68555   0.51263  -0.41352
N          N       0.32505   0.70135   0.53412  -0.41512
N          N       0.69637   0.37634   0.49264  -0.40803
N          N       0.62557   0.31792   0.49059  -0.41262
N          N       0.68051   0.30393   0.46040  -0.41336

