data_crystal

_audit_creation_method 'AiiDA-DDEC plugin'

_cell_length_a        36.69987
_cell_length_b        36.84469
_cell_length_c         8.35904

_cell_angle_alpha     119.82223
_cell_angle_beta     72.44405
_cell_angle_gamma     119.93678

_symmetry_space_group_name_Hall 'P 1'
_symmetry_space_group_name_H-M  'P 1'

loop_
_symmetry_equiv_pos_as_xyz
 'x,y,z'

loop_
_atom_site_label
_atom_site_type_symbol
_atom_site_fract_x
_atom_site_fract_y
_atom_site_fract_z
_atom_site_charge
H          H       0.88763   0.26477   0.47368   0.14447
H          H       0.73420   0.62551   0.51538   0.13991
H          H       0.35918   0.05724   0.34428   0.12114
H          H       0.08068   0.70414   0.35935   0.12784
H          H       0.28636   0.33721   0.43175   0.13337
H          H       0.62110   0.88561   0.49325   0.14640
H          H       0.06773   0.72824   0.11658   0.13110
H          H       0.26607   0.38358   0.03240   0.14157
H          H       0.64406   0.94878   0.13713   0.12428
H          H       0.93589   0.29966   0.12680   0.12926
H          H       0.73378   0.61323   0.92159   0.14300
H          H       0.37838   0.11578   0.00301   0.14889
H          H       0.75370   0.29624   0.87979   0.10233
H          H       0.69434   0.45672   0.07849   0.09848
H          H       0.55651   0.24436   0.92594   0.10355
H          H       0.24514   0.70555   0.13008   0.10411
H          H       0.30898   0.57450   0.14052   0.10180
H          H       0.44464   0.76577   0.09837   0.10197
H          H       0.82901   0.32141   0.87704   0.09836
H          H       0.66746   0.50637   0.09199   0.09757
H          H       0.50880   0.16698   0.89632   0.10097
H          H       0.16917   0.67773   0.13283   0.09926
H          H       0.33466   0.52292   0.12154   0.10275
H          H       0.49094   0.84238   0.11617   0.09893
H          H       0.84922   0.46258   0.10066   0.11046
H          H       0.54625   0.39247   0.95237   0.10747
H          H       0.60260   0.15892   0.06797   0.10928
H          H       0.15378   0.53784   0.88549   0.10985
H          H       0.45150   0.58745   0.85253   0.11159
H          H       0.39633   0.84315   0.91847   0.10858
H          H       0.77288   0.43748   0.10496   0.10318
H          H       0.57279   0.34193   0.94221   0.10354
H          H       0.65175   0.23723   0.09481   0.10758
H          H       0.23073   0.56535   0.87993   0.10416
H          H       0.42564   0.63933   0.86913   0.10691
H          H       0.34844   0.76541   0.90233   0.10628
H          H       0.04360   0.46445   0.00210   0.12885
H          H       0.53599   0.57676   0.96702   0.12495
H          H       0.42086   0.95837   0.98114   0.12328
H          H       0.95743   0.53445  -0.00339   0.12944
H          H       0.46458   0.42593   0.01485   0.12455
H          H       0.57735   0.04558   0.00488   0.12386
H          H       0.28401   0.59484   0.02094   0.10411
H          H       0.41072   0.69682   0.01153   0.10692
H          H       0.30715   0.71773   0.99227   0.10372
H          H       0.71817   0.40784   0.96678   0.10450
H          H       0.59078   0.31458   0.04379   0.10539
H          H       0.69346   0.28605   0.00848   0.09953
H          H       0.86323   0.32282   0.01888   0.13123
H          H       0.67979   0.53865   0.95295   0.12892
H          H       0.45767   0.14073   0.00478   0.12953
H          H       0.13783   0.67477   0.96915   0.13161
H          H       0.32088   0.45736   0.97589   0.12963
H          H       0.54075   0.86361   0.98308   0.13296
H          H       0.93760   0.27267   0.88094   0.13149
H          H       0.71818   0.65897   0.07071   0.13360
H          H       0.34521   0.07389   0.09353   0.13144
H          H       0.06225   0.69860   0.87401   0.12996
H          H       0.28715   0.37361   0.16504   0.13423
H          H       0.65244   0.92782   0.89227   0.13059
H          H       0.88865   0.26854   0.01282   0.14581
H          H       0.71393   0.63364   0.82887   0.13313
H          H       0.35473   0.05658   0.85050   0.12393
H          H       0.11281   0.72740   0.95928   0.14753
H          H       0.28483   0.33993   0.92319   0.13162
H          H       0.61873   0.88880  -0.00345   0.14691
H          H       0.11213   0.73727   0.55142   0.14265
H          H       0.26683   0.37868   0.49848   0.14179
H          H       0.64631   0.94593   0.63095   0.12593
H          H       0.92953   0.29711   0.62118   0.12864
H          H       0.71144   0.66392   0.57625   0.13393
H          H       0.37659   0.11203   0.53566   0.14794
H          H       0.74984   0.31990   0.61777   0.09763
H          H       0.69506   0.43583   0.43245   0.09892
H          H       0.55521   0.23516   0.40031   0.10289
H          H       0.25040   0.67788   0.38530   0.09538
H          H       0.30995   0.57304   0.64793   0.09693
H          H       0.44422   0.75950   0.59205   0.10206
H          H       0.82527   0.34848   0.62344   0.08949
H          H       0.67086   0.48574   0.43132   0.09254
H          H       0.50775   0.15867   0.38393   0.10016
H          H       0.17557   0.65025   0.37329   0.09231
H          H       0.33662   0.52290   0.63863   0.09923
H          H       0.49168   0.83580   0.60817   0.10038
H          H       0.84896   0.43785   0.38151   0.10348
H          H       0.54454   0.40537   0.58396   0.10888
H          H       0.60110   0.15685   0.58575   0.10572
H          H       0.14806   0.55682   0.60115   0.10530
H          H       0.45143   0.58351   0.34941   0.11071
H          H       0.39710   0.83986   0.42434   0.10740
H          H       0.77254   0.40895   0.37436   0.09509
H          H       0.56866   0.35428   0.58649   0.10435
H          H       0.64988   0.23449   0.60050   0.10229
H          H       0.22388   0.58424   0.61266   0.09409
H          H       0.42473   0.63392   0.35689   0.10861
H          H       0.34812   0.76242   0.40978   0.10275
H          H       0.04137   0.46526   0.51311   0.12562
H          H       0.53644   0.57376   0.46429   0.12518
H          H       0.42102   0.95342   0.48400   0.12418
H          H       0.95712   0.53395   0.48244   0.12779
H          H       0.46546   0.42282   0.51110   0.12480
H          H       0.57723   0.04167   0.51460   0.12344
H          H       0.28369   0.58928   0.50633   0.10094
H          H       0.41029   0.69085   0.49440   0.10575
H          H       0.30651   0.71654   0.51686   0.10447
H          H       0.71497   0.40945   0.52676   0.10394
H          H       0.58819   0.30564   0.51305   0.10179
H          H       0.69194   0.27835   0.47648   0.10441
H          H       0.86228   0.31863   0.47292   0.12889
H          H       0.67998   0.54700   0.53615   0.12793
H          H       0.45728   0.13631   0.51656   0.13395
H          H       0.13797   0.67947   0.52060   0.12910
H          H       0.32188   0.45692   0.48530   0.12922
H          H       0.54219   0.85941   0.48293   0.13251
H          H       0.94026   0.27478   0.37713   0.13286
H          H       0.71854   0.62806   0.34073   0.13608
H          H       0.34215   0.06130   0.57266   0.13130
H          H       0.05690   0.72132   0.58847   0.13304
H          H       0.28325   0.37509   0.66783   0.13576
H          H       0.65341   0.92429   0.38625   0.13223
C          C       0.75675   0.36469   0.99411   0.07382
C          C       0.63632   0.39475   0.00645   0.07396
C          C       0.60814   0.24804   0.01585   0.06203
C          C       0.24449   0.63786   0.00259   0.07204
C          C       0.36519   0.61165   0.00834   0.06499
C          C       0.39226   0.75853  -0.00124   0.06644
C          C       0.77406   0.33304   0.93329  -0.13209
C          C       0.66199   0.44157   0.04513  -0.13449
C          C       0.56669   0.22702   0.96562  -0.13355
C          C       0.22577   0.66853   0.06994  -0.13482
C          C       0.33986   0.57691   0.07183  -0.13868
C          C       0.43369   0.78132   0.05219  -0.12952
C          C       0.81717   0.34748   0.93307  -0.11936
C          C       0.64674   0.47000   0.05013  -0.12618
C          C       0.53905   0.18255   0.95019  -0.13189
C          C       0.18241   0.65265   0.06991  -0.11786
C          C       0.35429   0.54686   0.05821  -0.12632
C          C       0.46067   0.82525   0.05988  -0.12798
C          C       0.84518   0.39445   0.99387   0.03884
C          C       0.60491   0.45287   0.01288   0.04284
C          C       0.55106   0.15698   0.98807   0.04289
C          C       0.15572   0.60525   0.00187   0.03378
C          C       0.39485   0.54999   0.97933   0.03413
C          C       0.44801   0.84851   0.01097   0.03947
C          C       0.82787   0.42616   0.05338  -0.09442
C          C       0.57881   0.40621   0.97906  -0.09829
C          C       0.59281   0.17797   0.03683  -0.09941
C          C       0.17434   0.57451   0.93686  -0.09013
C          C       0.42027   0.58482   0.91583  -0.10146
C          C       0.40640   0.82593   0.95919  -0.09902
C          C       0.78496   0.41170   0.05378  -0.13127
C          C       0.59403   0.37801   0.97487  -0.12692
C          C       0.62043   0.22208   0.05022  -0.13793
C          C       0.21752   0.59038   0.93655  -0.13033
C          C       0.40580   0.61471   0.92946  -0.12695
C          C       0.37948   0.78221   0.95229  -0.13891
C          C       0.89141   0.41280  -0.00388   0.17684
C          C       0.58674   0.48007   0.00582   0.18395
C          C       0.52291   0.11048   0.98407   0.17582
C          C       0.10946   0.58594  -0.00074   0.18188
C          C       0.41342   0.52196   0.97603   0.17988
C          C       0.47563   0.89419   0.00678   0.18253
C          C       0.95589   0.47595  -0.00080   0.20117
C          C       0.52378   0.48157   0.00210   0.19685
C          C       0.52055   0.04626   0.99018   0.19741
C          C       0.04521   0.52297  -0.00099   0.19696
C          C       0.47668   0.52111   0.98009   0.19730
C          C       0.47769   0.95768   0.99596   0.19750
C          C       0.98057   0.45523  -0.00182  -0.00571
C          C       0.54453   0.52568   0.99278   0.00884
C          C       0.47533   0.02122   0.98322   0.00067
C          C       0.02049   0.54358  -0.00090  -0.00129
C          C       0.45594   0.47754   0.99390   0.01120
C          C       0.52295   0.98275   0.00264   0.00199
C          C       0.02443   0.47902  -0.00102  -0.19903
C          C       0.52084   0.54425   0.98002  -0.19499
C          C       0.45493   0.97774   0.98568  -0.19434
C          C       0.97664   0.51990  -0.00055  -0.20443
C          C       0.47965   0.45868   0.00372  -0.19551
C          C       0.54331   0.02619   0.00012  -0.19606
C          C       0.29029   0.65450   0.00655   0.06083
C          C       0.34935   0.64220   0.01421   0.08258
C          C       0.36271   0.71314   0.00211   0.07294
C          C       0.71106   0.34976  -0.00377   0.06091
C          C       0.65239   0.36484   0.00467   0.08007
C          C       0.63830   0.29361   0.01641   0.07768
C          C       0.30594   0.62771   0.01483  -0.18094
C          C       0.37714   0.68514   0.00956  -0.17222
C          C       0.31904   0.69710   0.00097  -0.18525
C          C       0.69583   0.37713   0.98926  -0.18220
C          C       0.62432   0.32341   0.02186  -0.17106
C          C       0.68192   0.30776   0.00611  -0.17763
C          C       0.41120   0.45710  -0.00338  -0.03665
C          C       0.54338   0.95919   0.00761  -0.02014
C          C       0.04415   0.58772  -0.00399  -0.03411
C          C       0.58925   0.54609   0.99205  -0.03908
C          C       0.45511   0.04502   0.97855  -0.02276
C          C       0.95673   0.41083  -0.00149  -0.03252
C          C       0.08845   0.60956   0.99325  -0.01405
C          C       0.38893   0.47768   0.98573  -0.01681
C          C       0.52121   0.91461   0.00328  -0.01789
C          C       0.91239   0.38877  -0.00056  -0.01071
C          C       0.61139   0.52375   0.99037  -0.01886
C          C       0.47733   0.08978   0.98418  -0.01858
C          C       0.89632   0.34515   0.00660  -0.23375
C          C       0.65611   0.54990   0.97032  -0.23912
C          C       0.44866   0.10663   0.99180  -0.23594
C          C       0.10468   0.65287   0.98350  -0.23570
C          C       0.34430   0.44939   0.98855  -0.23925
C          C       0.54977   0.89768   0.99562  -0.23780
C          C       0.92716   0.33422   0.00514   0.09031
C          C       0.66712   0.59094   0.96628   0.07959
C          C       0.40715   0.07557   0.98479   0.07910
C          C       0.07394   0.66403   0.98582   0.09046
C          C       0.33348   0.41010   0.00676   0.07405
C          C       0.59130   0.92871   0.00248   0.08180
C          C       0.92223   0.29156   0.00640  -0.41503
C          C       0.71045   0.62615   0.94601  -0.41265
C          C       0.36933   0.08066   0.98338  -0.41263
C          C       0.07926   0.70679   0.98398  -0.41468
C          C       0.29064   0.37486   0.03209  -0.40739
C          C       0.62873   0.92332   0.00660  -0.41246
C          C       0.75470   0.36148   0.49384   0.06215
C          C       0.63433   0.39107   0.51338   0.07212
C          C       0.60653   0.24182   0.50389   0.06550
C          C       0.24381   0.63463   0.50578   0.06202
C          C       0.36496   0.60741   0.50325   0.06565
C          C       0.39199   0.75406   0.49898   0.06489
C          C       0.77117   0.34443   0.55864  -0.14277
C          C       0.66206   0.42934   0.47233  -0.14212
C          C       0.56529   0.21938   0.44902  -0.13783
C          C       0.22847   0.65263   0.44045  -0.13689
C          C       0.34038   0.57434   0.57572  -0.14244
C          C       0.43366   0.77571   0.54771  -0.13201
C          C       0.81445   0.36052   0.56007  -0.12845
C          C       0.64816   0.45828   0.47289  -0.12065
C          C       0.53785   0.17555   0.44144  -0.12695
C          C       0.18538   0.63709   0.43531  -0.13359
C          C       0.35521   0.54515   0.56706  -0.12096
C          C       0.46116   0.81950   0.55528  -0.13154
C          C       0.84348   0.39431   0.49532   0.03446
C          C       0.60550   0.45043   0.51289   0.03827
C          C       0.54999   0.15204   0.49132   0.03528
C          C       0.15539   0.60287   0.49636   0.03643
C          C       0.39544   0.54770   0.48419   0.03185
C          C       0.44870   0.84365   0.51076   0.03778
C          C       0.82697   0.41162   0.43127  -0.10955
C          C       0.57758   0.41179   0.55211  -0.09796
C          C       0.59142   0.17438   0.54507  -0.09490
C          C       0.17079   0.58386   0.55665  -0.10784
C          C       0.42028   0.58116   0.41324  -0.10226
C          C       0.40691   0.82190   0.46191  -0.09487
C          C       0.78380   0.39557   0.43003  -0.13495
C          C       0.59151   0.38300   0.55165  -0.13270
C          C       0.61878   0.21798   0.55160  -0.13578
C          C       0.21370   0.59927   0.56093  -0.13801
C          C       0.40541   0.61019   0.42190  -0.12821
C          C       0.37945   0.77843   0.45575  -0.13779
C          C       0.88980   0.41348   0.49707   0.18779
C          C       0.58763   0.47818   0.50804   0.18528
C          C       0.52238   0.10593   0.49148   0.18225
C          C       0.10916   0.58473   0.49554   0.18520
C          C       0.41424   0.52010   0.48234   0.18236
C          C       0.47637   0.88955   0.50881   0.17790
C          C       0.95449   0.47621   0.49620   0.19887
C          C       0.52457   0.47843   0.49657   0.19684
C          C       0.52046   0.04199   0.49760   0.19554
C          C       0.04400   0.52291   0.49907   0.19615
C          C       0.47734   0.51827   0.47965   0.19800
C          C       0.47795   0.95308   0.50026   0.19645
C          C       0.97876   0.45626   0.50485  -0.00447
C          C       0.54528   0.52215   0.48450   0.01018
C          C       0.47529   0.01656   0.48868   0.00492
C          C       0.01987   0.54305   0.49060  -0.00248
C          C       0.45652   0.47460   0.49301   0.00743
C          C       0.52311   0.97844   0.50844   0.00441
C          C       0.02260   0.47978   0.50644  -0.20152
C          C       0.52150   0.54097   0.47500  -0.19671
C          C       0.45505   0.97294   0.48973  -0.19746
C          C       0.97592   0.51949   0.48942  -0.20452
C          C       0.48039   0.45557   0.50033  -0.19524
C          C       0.54327   0.02204   0.50780  -0.19517
C          C       0.28953   0.65095   0.51087   0.06745
C          C       0.34879   0.63751   0.50834   0.08035
C          C       0.36210   0.70889   0.50214   0.07371
C          C       0.70877   0.34560   0.49863   0.07341
C          C       0.64965   0.36059   0.51175   0.07763
C          C       0.63632   0.28745   0.50392   0.07062
C          C       0.30537   0.62331   0.51124  -0.17624
C          C       0.37662   0.68008   0.50136  -0.17527
C          C       0.31840   0.69407   0.51028  -0.18168
C          C       0.69294   0.37473   0.51233  -0.17890
C          C       0.62187   0.31696   0.50984  -0.17494
C          C       0.68006   0.30183   0.49278  -0.18486
C          C       0.41171   0.45442   0.49788  -0.03072
C          C       0.54381   0.95501   0.51215  -0.02510
C          C       0.04441   0.58724   0.48777  -0.03576
C          C       0.58995   0.54301   0.48629  -0.03223
C          C       0.45483   0.04009   0.48395  -0.02302
C          C       0.95480   0.41201   0.50669  -0.03356
C          C       0.08857   0.60948   0.49501  -0.00915
C          C       0.38970   0.47585   0.49169  -0.02509
C          C       0.52196   0.91027   0.50617  -0.02039
C          C       0.91074   0.38910   0.49825  -0.01253
C          C       0.61213   0.52329   0.50448  -0.01941
C          C       0.47685   0.08502   0.49180  -0.01930
C          C       0.89492   0.34365   0.48800  -0.22876
C          C       0.65654   0.55309   0.51201  -0.23849
C          C       0.44820   0.10191   0.50042  -0.23713
C          C       0.10515   0.65506   0.50599  -0.23381
C          C       0.34503   0.44799   0.49387  -0.23876
C          C       0.55088   0.89346   0.49606  -0.23804
C          C       0.92550   0.33346   0.49483   0.08366
C          C       0.66733   0.59215   0.49219   0.07209
C          C       0.40678   0.07048   0.49037   0.08318
C          C       0.07513   0.66622   0.50078   0.08666
C          C       0.33374   0.40778   0.50555   0.07633
C          C       0.59230   0.92467   0.50177   0.08278
C          C       0.92060   0.29027   0.49116  -0.41392
C          C       0.71008   0.62936   0.48105  -0.41140
C          C       0.36915   0.07549   0.48603  -0.41337
C          C       0.08136   0.70953   0.50062  -0.41047
C          C       0.29034   0.37271   0.52610  -0.41138
C          C       0.63033   0.91985   0.50242  -0.41476
S          S       0.97728   0.37777  -0.00018   0.09015
S          S       0.62291   0.59867   0.98184   0.09116
S          S       0.40135   0.02431   0.97166   0.08849
S          S       0.02372   0.62079   0.99358   0.09361
S          S       0.37781   0.40544   0.01427   0.09509
S          S       0.59717   0.97988   0.01447   0.08937
S          S       0.97525   0.37896   0.50908   0.08754
S          S       0.62323   0.59490   0.47017   0.08859
S          S       0.40113   0.01905   0.47460   0.09106
S          S       0.02496   0.62136   0.48711   0.08577
S          S       0.37776   0.40203   0.50947   0.08854
S          S       0.59770   0.97592   0.51641   0.08702
N          N       0.91300   0.45456  -0.00206  -0.33577
N          N       0.54496   0.46101   0.01126  -0.33771
N          N       0.54246   0.08871   0.98714  -0.33620
N          N       0.08818   0.54447   0.00018  -0.34051
N          N       0.45523   0.54154   0.97145  -0.34269
N          N       0.45583   0.91548   0.00167  -0.33998
N          N       0.91146   0.45489   0.49524  -0.34240
N          N       0.54599   0.45793   0.50394  -0.33588
N          N       0.54224   0.08452   0.49502  -0.34020
N          N       0.08698   0.54356   0.49869  -0.33936
N          N       0.45603   0.53931   0.47476  -0.34092
N          N       0.45638   0.91074   0.50434  -0.33688

