data_crystal

_audit_creation_method 'AiiDA-DDEC plugin'

_cell_length_a        36.42385
_cell_length_b        36.39083
_cell_length_c         7.96688

_cell_angle_alpha     89.35331
_cell_angle_beta     90.41787
_cell_angle_gamma     119.75783

_symmetry_space_group_name_Hall 'P 1'
_symmetry_space_group_name_H-M  'P 1'

loop_
_symmetry_equiv_pos_as_xyz
 'x,y,z'

loop_
_atom_site_label
_atom_site_type_symbol
_atom_site_fract_x
_atom_site_fract_y
_atom_site_fract_z
_atom_site_charge
H          H       0.45520   0.61372   0.07500   0.11190
H          H       0.38437   0.84217   0.07448   0.11341
H          H       0.15919   0.54539   0.07714   0.11253
H          H       0.54441   0.38606   0.06165   0.11252
H          H       0.61751   0.15794   0.06225   0.11378
H          H       0.84392   0.46003   0.07296   0.11374
H          H       0.42262   0.65910   0.03628   0.10539
H          H       0.33987   0.76439   0.04087   0.10611
H          H       0.23681   0.57782   0.03675   0.10623
H          H       0.57737   0.34097   0.02776   0.10505
H          H       0.66353   0.23571   0.02829   0.10555
H          H       0.76612   0.42666   0.03286   0.10482
H          H       0.32377   0.56156   0.23478   0.10840
H          H       0.43623   0.76305   0.24536   0.10828
H          H       0.23550   0.67312   0.24106   0.10898
H          H       0.67628   0.43961   0.21540   0.10750
H          H       0.56306   0.23971   0.21232   0.10448
H          H       0.76374   0.32392   0.22128   0.10704
H          H       0.35533   0.51564   0.27293   0.10485
H          H       0.48000   0.84050   0.27912   0.10467
H          H       0.15803   0.63936   0.27830   0.10371
H          H       0.64473   0.48523   0.26212   0.10288
H          H       0.51649   0.16266   0.25491   0.10287
H          H       0.84068   0.35461   0.26685   0.10388
H          H       0.41099   0.69976   0.37179   0.10265
H          H       0.29870   0.71036   0.38841   0.10273
H          H       0.28856   0.58784   0.36734   0.10248
H          H       0.59011   0.30278   0.35337   0.10289
H          H       0.69982   0.28769   0.35010   0.10349
H          H       0.71414   0.41225   0.35730   0.10322
H          H       0.48758   0.90847   0.36818   0.07083
H          H       0.09048   0.58039   0.38121   0.06939
H          H       0.41517   0.50548   0.36910   0.07078
H          H       0.50574   0.09338   0.35545   0.06974
H          H       0.90922   0.41279   0.37098   0.06965
H          H       0.58590   0.49455   0.37067   0.06881
H          H       0.42298   0.46334   0.08335   0.10533
H          H       0.53733   0.95942   0.07077   0.10765
H          H       0.04295   0.58097   0.08862   0.10726
H          H       0.57921   0.53840   0.07048   0.10627
H          H       0.46354   0.04253   0.08060   0.10683
H          H       0.96093   0.42456   0.09654   0.10669
H          H       0.90485   0.51353   0.27207   0.12857
H          H       0.49259   0.39123   0.24068   0.12845
H          H       0.60740   0.09797   0.24761   0.12643
H          H       0.10217   0.49283   0.25416   0.12412
H          H       0.51054   0.60938   0.24070   0.12679
H          H       0.39260   0.90234   0.24984   0.12454
H          H       0.88324   0.57240   0.23994   0.12139
H          H       0.43204   0.31170   0.21567   0.12207
H          H       0.68750   0.11835   0.22812   0.12197
H          H       0.12004   0.43108   0.23579   0.12277
H          H       0.56978   0.68942   0.20800   0.12211
H          H       0.31273   0.88253   0.22630   0.12193
H          H       0.08903   0.35470   0.11028   0.13442
H          H       0.67383   0.71013   0.04794   0.12999
H          H       0.26517   0.90684   0.07092   0.13604
H          H       0.90943   0.64661   0.09630   0.13478
H          H       0.32869   0.28818   0.11110   0.12756
H          H       0.71100   0.03724   0.06770   0.12859
H          H       0.06831   0.35037   0.40370   0.13006
H          H       0.64080   0.73541   0.58210   0.13461
H          H       0.28479   0.93747   0.38026   0.13091
H          H       0.90769   0.63909   0.60329   0.13383
H          H       0.36647   0.28371   0.41056   0.12897
H          H       0.73177   0.09331   0.59158   0.13490
H          H       0.03847   0.32220   0.58221   0.12941
H          H       0.64144   0.71430   0.38238   0.12912
H          H       0.28848   0.96780   0.55881   0.12861
H          H       0.93299   0.64223   0.40874   0.12981
H          H       0.33339   0.28980   0.55617   0.12802
H          H       0.71008   0.06539   0.40152   0.13123
H          H       0.45760   0.61324   0.55528   0.11150
H          H       0.38274   0.84111   0.57835   0.11178
H          H       0.15855   0.54090   0.57851   0.11270
H          H       0.54899   0.38882   0.57489   0.11203
H          H       0.61163   0.15801   0.56111   0.11116
H          H       0.84282   0.45309   0.56570   0.11152
H          H       0.42534   0.65892   0.52298   0.10609
H          H       0.33887   0.76313   0.54780   0.10424
H          H       0.23651   0.57491   0.54340   0.10478
H          H       0.58109   0.34327   0.53155   0.10563
H          H       0.65816   0.23564   0.52300   0.10708
H          H       0.76553   0.42224   0.52275   0.10545
H          H       0.32620   0.56381   0.72323   0.10801
H          H       0.43789   0.76348   0.74493   0.10889
H          H       0.23651   0.67524   0.72613   0.10734
H          H       0.67755   0.44000   0.73676   0.10700
H          H       0.56582   0.24061   0.73788   0.10643
H          H       0.76675   0.32777   0.74352   0.10994
H          H       0.35821   0.51829   0.76708   0.10382
H          H       0.48217   0.84082   0.78104   0.10347
H          H       0.15917   0.64270   0.76698   0.10277
H          H       0.64507   0.48500   0.77484   0.10438
H          H       0.52000   0.16340   0.77535   0.10493
H          H       0.84409   0.36078   0.78697   0.10472
H          H       0.41129   0.70027   0.87241   0.10340
H          H       0.29972   0.71225   0.87554   0.10268
H          H       0.28845   0.58915   0.85808   0.10332
H          H       0.59158   0.30147   0.87128   0.10177
H          H       0.70401   0.29102   0.87197   0.10300
H          H       0.71378   0.41356   0.87116   0.10182
H          H       0.49010   0.90869   0.86730   0.06926
H          H       0.09139   0.58438   0.87536   0.06963
H          H       0.41582   0.50780   0.87311   0.07012
H          H       0.51052   0.09393   0.86464   0.07044
H          H       0.91144   0.42020   0.88306   0.07056
H          H       0.58636   0.49463   0.87318   0.06880
H          H       0.42337   0.46089   0.58739   0.10748
H          H       0.53391   0.95956   0.57836   0.10747
H          H       0.04039   0.57346   0.59395   0.10616
H          H       0.57976   0.53878   0.57846   0.10709
H          H       0.45942   0.04181   0.56696   0.10701
H          H       0.95934   0.41727   0.58189   0.10721
H          H       0.89912   0.50261   0.75031   0.12380
H          H       0.49602   0.39448   0.76809   0.12481
H          H       0.60393   0.10034   0.73279   0.12331
H          H       0.09923   0.48671   0.75524   0.12795
H          H       0.50704   0.60689   0.73695   0.12605
H          H       0.38796   0.90144   0.73777   0.12731
H          H       0.87905   0.56287   0.73011   0.12228
H          H       0.43829   0.31380   0.75089   0.12202
H          H       0.68404   0.12047   0.71759   0.12275
H          H       0.12022   0.42727   0.73525   0.12174
H          H       0.56553   0.68732   0.71190   0.12212
H          H       0.30821   0.88271   0.71123   0.12201
H          H       0.09435   0.35349   0.59720   0.13627
H          H       0.67119   0.71010   0.55093   0.13015
H          H       0.26219   0.91169   0.57411   0.13597
H          H       0.96364   0.66928   0.58719   0.13018
H          H       0.36234   0.26455   0.62027   0.13522
H          H       0.70728   0.03729   0.58883   0.12810
H          H       0.06848   0.35576   0.90806   0.12992
H          H       0.64372   0.73603   0.06955   0.13422
H          H       0.28882   0.93773   0.88763   0.13095
H          H       0.92493   0.64152   0.89073   0.12817
H          H       0.36032   0.26629   0.04682   0.13593
H          H       0.73546   0.09318   0.08509   0.13564
H          H       0.03352   0.32723   0.07466   0.13054
H          H       0.64533   0.71393   0.87342   0.12995
H          H       0.28854   0.96280   0.07707   0.12699
H          H       0.96353   0.67535   0.03663   0.13030
H          H       0.34622   0.29421   0.89996   0.13378
H          H       0.71306   0.06820   0.89093   0.12951
C          C       0.40820   0.56095   0.42092   0.05080
C          C       0.43468   0.84599   0.43461   0.04895
C          C       0.15317   0.58820   0.43395   0.05020
C          C       0.59495   0.44022   0.42395   0.04859
C          C       0.56074   0.15517   0.41330   0.04713
C          C       0.84689   0.40568   0.42185   0.04863
C          C       0.42812   0.60221   0.48644  -0.09685
C          C       0.39419   0.82349   0.50722  -0.09822
C          C       0.17587   0.56983   0.50482  -0.09859
C          C       0.57688   0.39950   0.49674  -0.09718
C          C       0.60140   0.17637   0.48558  -0.09519
C          C       0.82506   0.42481   0.49068  -0.09703
C          C       0.41026   0.62786   0.46516  -0.13381
C          C       0.36971   0.78004   0.48779  -0.13313
C          C       0.21924   0.58867   0.48281  -0.13335
C          C       0.59464   0.37410   0.47023  -0.13553
C          C       0.62743   0.21955   0.46148  -0.13701
C          C       0.78201   0.40769   0.46431  -0.13445
C          C       0.37180   0.61358   0.37790   0.06499
C          C       0.38446   0.75710   0.39578   0.06571
C          C       0.24184   0.62665   0.39037   0.06505
C          C       0.63120   0.38822   0.37141   0.06602
C          C       0.61399   0.24344   0.36530   0.06833
C          C       0.75875   0.37060   0.36983   0.06711
C          C       0.35250   0.57272   0.30903  -0.13660
C          C       0.42485   0.77971   0.32290  -0.13625
C          C       0.21904   0.64469   0.31828  -0.13784
C          C       0.64909   0.42878   0.29791  -0.13782
C          C       0.57351   0.22218   0.29204  -0.13604
C          C       0.78065   0.35167   0.30003  -0.13765
C          C       0.37049   0.54690   0.32947  -0.12564
C          C       0.44943   0.82343   0.34119  -0.12325
C          C       0.17535   0.62558   0.33872  -0.12223
C          C       0.63106   0.45430   0.32311  -0.12398
C          C       0.54741   0.17871   0.31501  -0.12377
C          C       0.82408   0.36917   0.32456  -0.12385
C          C       0.35212   0.64060   0.36671   0.07604
C          C       0.35808   0.71068   0.37845   0.07496
C          C       0.28827   0.64687   0.37487   0.07820
C          C       0.65003   0.36075   0.35214   0.07678
C          C       0.64166   0.28975   0.34909   0.07689
C          C       0.71252   0.35213   0.35144   0.07709
C          C       0.37670   0.68495   0.37051  -0.17906
C          C       0.31375   0.69107   0.37938  -0.18003
C          C       0.30793   0.62215   0.36676  -0.18196
C          C       0.62428   0.31657   0.34932  -0.18168
C          C       0.68586   0.30807   0.34786  -0.18114
C          C       0.69407   0.37806   0.35108  -0.18040
C          C       0.46022   0.89186   0.45235   0.07047
C          C       0.10756   0.56846   0.45849   0.06848
C          C       0.42717   0.53411   0.44617   0.06765
C          C       0.53372   0.10956   0.43727   0.07090
C          C       0.89230   0.42421   0.44967   0.07107
C          C       0.57527   0.46617   0.45042   0.06989
C          C       0.47698   0.95642   0.06847   0.17221
C          C       0.04626   0.52379   0.08404   0.17288
C          C       0.47944   0.52393   0.06968   0.17546
C          C       0.52374   0.04549   0.06858   0.17405
C          C       0.95742   0.48168   0.08582   0.17463
C          C       0.52265   0.47768   0.06851   0.17179
C          C       0.45738   0.47959   0.07804  -0.23158
C          C       0.52134   0.97798   0.07020  -0.23036
C          C       0.02446   0.54654   0.08898  -0.23317
C          C       0.54478   0.52211   0.07103  -0.22779
C          C       0.47943   0.02392   0.07549  -0.23028
C          C       0.97928   0.45901   0.09319  -0.23043
C          C       0.47772   0.45548   0.08450   0.02900
C          C       0.54566   0.02219   0.07884   0.02580
C          C       0.98026   0.52672   0.09806   0.02714
C          C       0.52452   0.54623   0.07908   0.02650
C          C       0.45511   0.97961   0.08304   0.02606
C          C       0.02351   0.47883   0.10013   0.02795
C          C       0.95858   0.55134   0.11024  -0.01675
C          C       0.45312   0.40936   0.09764  -0.01496
C          C       0.59171   0.04352   0.09300  -0.01636
C          C       0.04493   0.45392   0.11230  -0.01751
C          C       0.54889   0.59242   0.08832  -0.01637
C          C       0.40902   0.95811   0.09715  -0.01800
C          C       0.92210   0.54208   0.19683  -0.15581
C          C       0.46291   0.38104   0.17519  -0.15501
C          C       0.61878   0.08015   0.17832  -0.15818
C          C       0.08270   0.46320   0.18991  -0.15165
C          C       0.53937   0.62016   0.16912  -0.15571
C          C       0.38163   0.92082   0.18020  -0.15410
C          C       0.93843   0.60806   0.08256   0.06501
C          C       0.39514   0.33349   0.07493   0.06941
C          C       0.66806   0.06246   0.07644   0.06332
C          C       0.06244   0.39536   0.09133   0.06676
C          C       0.60599   0.66870   0.06141   0.06638
C          C       0.33260   0.93898   0.07369   0.06590
C          C       0.91092   0.57416   0.18118  -0.19859
C          C       0.43011   0.33831   0.16231  -0.19967
C          C       0.66177   0.09071   0.16886  -0.19700
C          C       0.09226   0.42996   0.17911  -0.19795
C          C       0.57157   0.66312   0.15325  -0.19926
C          C       0.33866   0.91027   0.16729  -0.19679
C          C       0.06325   0.35615   0.04380  -0.41362
C          C       0.64427   0.70919   0.01038  -0.41143
C          C       0.29180   0.93671   0.02486  -0.41380
C          C       0.93410   0.64493   0.02401  -0.41132
C          C       0.35546   0.29360   0.03112  -0.41255
C          C       0.70892   0.06519   0.02792  -0.41107
C          C       0.40850   0.56275   0.92647   0.04854
C          C       0.43643   0.84658   0.93219   0.05013
C          C       0.15423   0.59232   0.92780   0.04995
C          C       0.59298   0.43883   0.92446   0.05134
C          C       0.56532   0.15561   0.92519   0.05167
C          C       0.84896   0.41227   0.93516   0.05026
C          C       0.42690   0.60321  -0.00125  -0.09695
C          C       0.39566   0.82450   0.00270  -0.09813
C          C       0.17658   0.57376   0.00036  -0.09674
C          C       0.57361   0.39739   0.99120  -0.09870
C          C       0.60654   0.17657   0.99262  -0.09890
C          C       0.82653   0.43114   0.00081  -0.09841
C          C       0.40887   0.62859   0.97442  -0.13476
C          C       0.37080   0.78114   0.98155  -0.13436
C          C       0.21973   0.59171   0.97551  -0.13482
C          C       0.59191   0.37225   0.96962  -0.13260
C          C       0.63225   0.21993   0.97113  -0.13370
C          C       0.78328   0.41263   0.97596  -0.13501
C          C       0.37181   0.61472   0.87768   0.06510
C          C       0.38552   0.75809   0.89031   0.06569
C          C       0.24239   0.62907   0.87963   0.06682
C          C       0.63023   0.38728   0.88152   0.06658
C          C       0.61790   0.24419   0.88260   0.06559
C          C       0.76063   0.37463   0.88606   0.06673
C          C       0.35377   0.57450   0.80413  -0.13686
C          C       0.42627   0.78028   0.82031  -0.13771
C          C       0.21994   0.64733   0.80598  -0.13801
C          C       0.64898   0.42834   0.81178  -0.13479
C          C       0.57701   0.22296   0.81288  -0.13464
C          C       0.78325   0.35623   0.81871  -0.13788
C          C       0.37194   0.54896   0.82788  -0.12348
C          C       0.45117   0.82388   0.83994  -0.12316
C          C       0.17639   0.62891   0.82826  -0.12339
C          C       0.63054   0.45361   0.83240  -0.12443
C          C       0.55124   0.17939   0.83302  -0.12365
C          C       0.82681   0.37493   0.84217  -0.12267
C          C       0.35215   0.64162   0.86240   0.07818
C          C       0.35877   0.71185   0.87140   0.07715
C          C       0.28871   0.64856   0.86374   0.07699
C          C       0.65028   0.36073   0.86826   0.07600
C          C       0.64458   0.29070   0.86908   0.07702
C          C       0.71425   0.35458   0.86960   0.07496
C          C       0.37706   0.68586   0.86678  -0.18222
C          C       0.31452   0.69270   0.86804  -0.18186
C          C       0.30800   0.62345   0.85874  -0.18099
C          C       0.62586   0.31639   0.86779  -0.18083
C          C       0.68887   0.31034   0.86846  -0.17979
C          C       0.69446   0.37927   0.86761  -0.17979
C          C       0.46265   0.89226   0.95124   0.07043
C          C       0.10887   0.57335   0.95519   0.06911
C          C       0.42779   0.53630   0.95097   0.07010
C          C       0.53821   0.11000   0.94783   0.06957
C          C       0.89442   0.43150   0.96180   0.06819
C          C       0.57394   0.46541   0.94903   0.06777
C          C       0.47344   0.95600   0.56690   0.17416
C          C       0.04445   0.51684   0.57948   0.17656
C          C       0.47901   0.52214   0.56936   0.17384
C          C       0.51991   0.04535   0.56128   0.17403
C          C       0.95537   0.47409   0.57686   0.17228
C          C       0.52400   0.47761   0.57409   0.17341
C          C       0.45777   0.47781   0.58091  -0.22976
C          C       0.51778   0.97795   0.57210  -0.23039
C          C       0.02224   0.53907   0.58857  -0.23053
C          C       0.54531   0.52199   0.57618  -0.23190
C          C       0.47558   0.02343   0.56624  -0.23128
C          C       0.97757   0.45171   0.58184  -0.23114
C          C       0.47910   0.45467   0.59112   0.02798
C          C       0.54198   0.02225   0.57752   0.02540
C          C       0.97801   0.51896   0.59608   0.02791
C          C       0.52407   0.54523   0.58138   0.02730
C          C       0.45139   0.97913   0.57627   0.02562
C          C       0.02180   0.47174   0.59141   0.02659
C          C       0.95648   0.54357   0.61252  -0.01564
C          C       0.45587   0.40863   0.60965  -0.01980
C          C       0.58802   0.04361   0.59321  -0.01503
C          C       0.04366   0.44730   0.60577  -0.01708
C          C       0.54746   0.59138   0.59144  -0.01728
C          C       0.40533   0.95795   0.58878  -0.01649
C          C       0.91827   0.53287   0.68812  -0.15274
C          C       0.46675   0.38236   0.69750  -0.15207
C          C       0.61523   0.08150   0.67074  -0.15449
C          C       0.08104   0.45726   0.68818  -0.15642
C          C       0.53660   0.61842   0.66988  -0.15598
C          C       0.37741   0.92048   0.66942  -0.15536
C          C       0.93743   0.60121   0.59352   0.06669
C          C       0.40060   0.33171   0.59397   0.06269
C          C       0.66449   0.06261   0.57926   0.06590
C          C       0.06322   0.39012   0.58875   0.06606
C          C       0.60353   0.66805   0.56889   0.06478
C          C       0.32942   0.94043   0.56592   0.06535
C          C       0.90768   0.56543   0.67738  -0.19550
C          C       0.43543   0.33901   0.68884  -0.19401
C          C       0.65823   0.09209   0.66270  -0.19643
C          C       0.09196   0.42499   0.67824  -0.19592
C          C       0.56828   0.66160   0.65686  -0.19614
C          C       0.33464   0.91071   0.65597  -0.19755
C          C       0.06604   0.35199   0.54077  -0.41311
C          C       0.64129   0.70902   0.51871  -0.41230
C          C       0.28924   0.93947   0.51727  -0.41259
C          C       0.93552   0.64010   0.54592  -0.41278
C          C       0.36368   0.29035   0.54295  -0.41027
C          C       0.70540   0.06453   0.53808  -0.41158
S          S       0.97879   0.60038   0.01027   0.06739
S          S       0.40276   0.38218   0.00934   0.06765
S          S       0.62031   0.02230   0.00200   0.06964
S          S       0.02196   0.40375   0.02411   0.07280
S          S       0.59842   0.62040   0.99407   0.07072
S          S       0.38057   0.97960   0.00262   0.07059
S          S       0.97904   0.59467   0.52945   0.07272
S          S       0.40645   0.37887   0.51662   0.07097
S          S       0.61667   0.02132   0.51127   0.07124
S          S       0.02225   0.39731   0.51699   0.06861
S          S       0.59748   0.62029   0.50238   0.07287
S          S       0.37779   0.98087   0.49791   0.06900
N          N       0.45282   0.91243   0.05761  -0.26552
N          N       0.09002   0.54350   0.06520  -0.26579
N          N       0.45899   0.54756   0.05435  -0.26566
N          N       0.54793   0.08952   0.05580  -0.26159
N          N       0.91358   0.46179   0.06805  -0.26548
N          N       0.54268   0.45375   0.05156  -0.26650
N          N       0.44976   0.91189   0.55722  -0.26514
N          N       0.08830   0.53713   0.56225  -0.26435
N          N       0.45817   0.54533   0.55047  -0.26375
N          N       0.54380   0.08934   0.54513  -0.26621
N          N       0.91160   0.45430   0.55686  -0.26989
N          N       0.54490   0.45448   0.55737  -0.26556

