data_crystal

_audit_creation_method 'AiiDA-DDEC plugin'

_cell_length_a        37.38172
_cell_length_b        37.90249
_cell_length_c         8.35052

_cell_angle_alpha     63.23395
_cell_angle_beta     92.22583
_cell_angle_gamma     122.37228

_symmetry_space_group_name_Hall 'P 1'
_symmetry_space_group_name_H-M  'P 1'

loop_
_symmetry_equiv_pos_as_xyz
 'x,y,z'

loop_
_atom_site_label
_atom_site_type_symbol
_atom_site_fract_x
_atom_site_fract_y
_atom_site_fract_z
_atom_site_charge
H          H       0.39466   0.69438   0.35150   0.11075
H          H       0.56642   0.29243   0.25838   0.10909
H          H       0.41280   0.74092   0.45617   0.10015
H          H       0.53724   0.22530   0.29769   0.11234
H          H       0.45716   0.82296   0.40741   0.11856
H          H       0.50580   0.15327   0.27553   0.11979
H          H       0.36841   0.85099   0.12551   0.10418
H          H       0.63580   0.19299   0.11027   0.12140
H          H       0.32397   0.76757   0.17444   0.11395
H          H       0.66768   0.26810   0.12392   0.11385
H          H       0.44228   0.91506   0.09875   0.22876
H          H       0.56773   0.13374   0.06303   0.24834
H          H       0.47275   0.88777   0.43528   0.09973
H          H       0.49366   0.07623   0.39162   0.09328
H          H       0.27258   0.57688   0.36251   0.11353
H          H       0.68434   0.41065   0.26508   0.11258
H          H       0.30008   0.53745   0.45810   0.10914
H          H       0.64733   0.42813   0.33588   0.10929
H          H       0.33646   0.50322   0.41618   0.12275
H          H       0.60704   0.46048   0.34819   0.11798
H          H       0.46151   0.64215   0.19736   0.11162
H          H       0.49496   0.35007   0.27931   0.11167
H          H       0.42448   0.67707   0.22964   0.10795
H          H       0.53636   0.31946   0.25654   0.10508
H          H       0.45044   0.40613   0.38207   0.11587
H          H       0.49224   0.56422   0.27562   0.11208
H          H       0.56629   0.61927   0.07246   0.10087
H          H       0.38632   0.37954   0.27454   0.11116
H          H       0.61013   0.62452   0.18053   0.13617
H          H       0.33443   0.35027   0.42741   0.12851
H          H       0.61464   0.62165   0.71314   0.11652
H          H       0.42260   0.37069   0.92139   0.09448
H          H       0.44546   0.57652   0.13939   0.23748
H          H       0.50232   0.42001   0.22505   0.25352
H          H       0.38442   0.48121   0.47760   0.10867
H          H       0.55541   0.47102   0.41692   0.08915
H          H       0.24400   0.67382   0.07081   0.11879
H          H       0.73726   0.33706   0.13827   0.10460
H          H       0.16866   0.63276   0.03196   0.11533
H          H       0.81666   0.37355   0.10807   0.10563
H          H       0.12661   0.50483   0.55648   0.09721
H          H       0.82700   0.47129   0.26518   0.10770
H          H       0.56803   0.07056   0.21125   0.12080
H          H       0.41958   0.92911   0.33120   0.12387
H          H       0.20207   0.54701   0.59985   0.09908
H          H       0.74755   0.43424   0.29985   0.10042
H          H       0.37198   0.98802   0.47084   0.12893
H          H       0.62146   0.07333   0.07864   0.10230
H          H       0.10213   0.54104   0.14449   0.22436
H          H       0.88585   0.44878   0.04366   0.23560
H          H       0.42249   0.00892   0.53696   0.09569
H          H       0.62907   0.02554   0.18071   0.12979
H          H       0.38783   0.94749   0.58561   0.09164
H          H       0.60523   0.03435   0.32884   0.11340
H          H       0.07258   0.55854   0.40621   0.09414
H          H       0.86809   0.42014   0.43686   0.09220
H          H       0.92482   0.50525   0.33257   0.11653
H          H       0.03348   0.47339   0.25710   0.11832
H          H       0.00722   0.41177   0.20587   0.08926
H          H       0.97095   0.59189   0.18923   0.10887
H          H       0.95413   0.35508   0.30283   0.12977
H          H       0.00129   0.61944   0.31963   0.13054
H          H       0.05753   0.41777   0.81031   0.09578
H          H       0.97885   0.55513   0.94988   0.09838
H          H       0.43309   0.70764   0.82000   0.11283
H          H       0.61065   0.31184   0.68325   0.11135
H          H       0.44629   0.75370   0.95990   0.09872
H          H       0.57636   0.23557   0.82149   0.10619
H          H       0.47912   0.83370   0.92340   0.12041
H          H       0.53525   0.16362   0.79147   0.11586
H          H       0.37996   0.84250   0.66207   0.11415
H          H       0.65705   0.19913   0.53910   0.11665
H          H       0.34687   0.76110   0.70354   0.11537
H          H       0.69831   0.27441   0.55805   0.11722
H          H       0.44450   0.91089   0.63906   0.23875
H          H       0.58054   0.14308   0.51291   0.24900
H          H       0.49506   0.90004   0.91559   0.10773
H          H       0.52090   0.08498   0.89006   0.08832
H          H       0.31204   0.58180   0.86959   0.11744
H          H       0.72449   0.41176   0.78630   0.11312
H          H       0.34758   0.57489   0.73649   0.10693
H          H       0.69470   0.44683   0.76060   0.10727
H          H       0.38511   0.54425   0.67689   0.11314
H          H       0.65456   0.47897   0.78289   0.12094
H          H       0.49809   0.63506   0.80996   0.10967
H          H       0.53566   0.35678   0.80123   0.11534
H          H       0.45983   0.66648   0.87267   0.10017
H          H       0.57554   0.32408   0.78464   0.10996
H          H       0.49819   0.42108   0.90086   0.11954
H          H       0.53967   0.58703   0.65970   0.11329
H          H       0.60795   0.64443   0.48073   0.09208
H          H       0.41733   0.41571   0.74141   0.10224
H          H       0.65777   0.64966   0.51655   0.12987
H          H       0.37614   0.37135   0.96002   0.12519
H          H       0.56003   0.60591   0.30937   0.09561
H          H       0.37757   0.34844   0.52366   0.10130
H          H       0.46744   0.57605   0.56622   0.25005
H          H       0.54059   0.42431   0.74354   0.25035
H          H       0.44576   0.51282   0.96853   0.09346
H          H       0.60746   0.49912   0.82279   0.11565
H          H       0.27309   0.68360   0.68758   0.11316
H          H       0.76619   0.31608   0.85092   0.11818
H          H       0.19540   0.64877   0.68416   0.12554
H          H       0.84298   0.34944   0.87199   0.12453
H          H       0.16311   0.50518   0.04523   0.10889
H          H       0.87029   0.49156   0.62806   0.10739
H          H       0.58545   0.07938   0.66827   0.12132
H          H       0.43418   0.93615   0.82981   0.11356
H          H       0.24115   0.54068   0.04289   0.10585
H          H       0.79371   0.45758   0.60864   0.10734
H          H       0.38336   0.95299   0.84514   0.09804
H          H       0.63796   0.07251   0.60785   0.09922
H          H       0.11314   0.51677   0.90828   0.24543
H          H       0.92669   0.47843   0.64737   0.23813
H          H       0.37845   0.97483   0.98825   0.13961
H          H       0.63926   0.02038   0.70896   0.12932
H          H       0.39611   0.93571   0.06539   0.10028
H          H       0.61230   0.02781   0.85210   0.11201
H          H       0.10555   0.59479   0.82194   0.09625
H          H       0.91065   0.39448   0.99007   0.11094
H          H       0.95781   0.50526   0.83553   0.11550
H          H       0.07914   0.49070   0.76555   0.11344
H          H       0.04715   0.44603   0.59239   0.10314
H          H       0.98935   0.58901   0.70088   0.09677
H          H       0.01436   0.38091   0.73741   0.12505
H          H       0.02069   0.61943   0.82210   0.13087
H          H       0.97811   0.38082   0.44614   0.10837
H          H       0.95151   0.55920   0.43803   0.08668
C          C       0.27436   0.63574   0.34778   0.22332
C          C       0.68918   0.36050   0.22768   0.20592
C          C       0.29261   0.61072   0.36270  -0.23762
C          C       0.66664   0.37822   0.25448  -0.23231
C          C       0.47925   0.91316   0.28664   0.08900
C          C       0.50637   0.08555   0.25085   0.09231
C          C       0.22800   0.61328   0.33762   0.03825
C          C       0.73674   0.38370   0.21506   0.02228
C          C       0.48854   0.95955   0.26944  -0.03356
C          C       0.49939   0.04069   0.26197  -0.02375
C          C       0.33551   0.56102   0.39882  -0.09910
C          C       0.61418   0.41091   0.31986  -0.10256
C          C       0.53089   0.00103   0.22951   0.20405
C          C       0.45742   0.00031   0.29357   0.17194
C          C       0.35612   0.54121   0.37670  -0.18516
C          C       0.59089   0.42931   0.32936  -0.19680
C          C       0.40174   0.57051   0.30118   0.21597
C          C       0.54793   0.40825   0.31034   0.21668
C          C       0.42595   0.61952   0.25181  -0.20006
C          C       0.52874   0.36765   0.28865  -0.20191
C          C       0.40499   0.63884   0.27274  -0.10930
C          C       0.55237   0.35022   0.27742  -0.10660
C          C       0.40441   0.50336   0.33154   0.07702
C          C       0.54016   0.47055   0.30140   0.09688
C          C       0.43926   0.49400   0.32803  -0.02884
C          C       0.50422   0.47774   0.31671  -0.03875
C          C       0.42723   0.44859   0.36310   0.17931
C          C       0.51586   0.52221   0.29106   0.18378
C          C       0.51563   0.91892   0.18794   0.23469
C          C       0.48101   0.10049   0.13238   0.20771
C          C       0.45986   0.44119   0.35458  -0.25473
C          C       0.48346   0.52999   0.29547  -0.25946
C          C       0.57441   0.60412   0.20314  -0.18176
C          C       0.37006   0.37041   0.40788  -0.18656
C          C       0.33998   0.69971   0.33541   0.21749
C          C       0.62553   0.29682   0.22443   0.21009
C          C       0.36561   0.74845   0.31451   0.01325
C          C       0.60519   0.25266   0.21089   0.01617
C          C       0.21795   0.63726   0.17943  -0.08446
C          C       0.75721   0.36684   0.16371  -0.09745
C          C       0.17572   0.61378   0.15667  -0.15536
C          C       0.80173   0.38748   0.14654  -0.17243
C          C       0.14250   0.56599   0.29284   0.19808
C          C       0.82749   0.42593   0.17871   0.20004
C          C       0.15218   0.54234   0.45319  -0.18674
C          C       0.80728   0.44206   0.23627  -0.17524
C          C       0.19453   0.56570   0.47581  -0.12920
C          C       0.76244   0.42121   0.25396  -0.11713
C          C       0.07138   0.55547   0.28066   0.08633
C          C       0.88631   0.42536   0.31801   0.08842
C          C       0.02344   0.52008   0.29297  -0.01632
C          C       0.93509   0.45816   0.30009  -0.02687
C          C       0.37404   0.48800   0.22059   0.21094
C          C       0.57659   0.51133   0.13016   0.22873
C          C       0.99246   0.52919   0.31490   0.16739
C          C       0.96605   0.44962   0.27556   0.20098
C          C       0.53552   0.03991   0.23298  -0.25157
C          C       0.45260   0.96028   0.30223  -0.24030
C          C       0.39980   0.98526   0.48568  -0.18840
C          C       0.60791   0.03635   0.19383  -0.18682
C          C       0.08774   0.60392   0.11912   0.23271
C          C       0.86954   0.37606   0.36017   0.23344
C          C       0.33715   0.63196   0.35806   0.10720
C          C       0.62148   0.35417   0.26620   0.11169
C          C       0.36029   0.67650   0.35153  -0.23610
C          C       0.60114   0.31256   0.25124  -0.23142
C          C       0.94905   0.49857   0.31730  -0.26863
C          C       0.00972   0.48041   0.27398  -0.23875
C          C       0.35916   0.61016   0.34624   0.04149
C          C       0.59618   0.37181   0.28952   0.03240
C          C       0.97486   0.38895   0.30466  -0.18017
C          C       0.98107   0.58533   0.31924  -0.18010
C          C       0.40316   0.76503   0.37987  -0.10243
C          C       0.55963   0.21950   0.25309  -0.10411
C          C       0.42837   0.81167   0.35410  -0.20064
C          C       0.54128   0.17749   0.24350  -0.20120
C          C       0.41648   0.84346   0.25932   0.22032
C          C       0.56842   0.16699   0.19592   0.20109
C          C       0.37844   0.82689   0.19549  -0.19891
C          C       0.61438   0.20032   0.15187  -0.19187
C          C       0.35342   0.78031   0.22302  -0.09171
C          C       0.63228   0.24230   0.15875  -0.09369
C          C       0.30949   0.63769   0.86330   0.21785
C          C       0.72748   0.36314   0.73009   0.20499
C          C       0.33080   0.61651   0.86325  -0.23608
C          C       0.70691   0.38319   0.75274  -0.23932
C          C       0.49358   0.92034   0.77310   0.08355
C          C       0.52647   0.09377   0.74392   0.09767
C          C       0.26271   0.61500   0.86492   0.00713
C          C       0.77399   0.38390   0.73316   0.01960
C          C       0.50272   0.96687   0.75107  -0.02113
C          C       0.51735   0.04889   0.74660  -0.02966
C          C       0.38024   0.58813   0.75703  -0.09943
C          C       0.65975   0.42646   0.76995  -0.10046
C          C       0.54561   0.00731   0.70846   0.18552
C          C       0.47417   0.00726   0.80009   0.17369
C          C       0.40175   0.57070   0.72120  -0.15676
C          C       0.63696   0.44507   0.78266  -0.19347
C          C       0.44416   0.58690   0.74191   0.19200
C          C       0.59210   0.42091   0.78937   0.22401
C          C       0.46459   0.62135   0.79850  -0.18740
C          C       0.57060   0.37656   0.79333  -0.20567
C          C       0.44301   0.63926   0.83186  -0.13114
C          C       0.59357   0.35837   0.78178  -0.10011
C          C       0.45257   0.52037   0.82510   0.09085
C          C       0.58702   0.48899   0.73102   0.08722
C          C       0.48707   0.51165   0.79965  -0.01705
C          C       0.55164   0.49699   0.74678  -0.02472
C          C       0.47581   0.46481   0.86770   0.17211
C          C       0.56317   0.54421   0.68039   0.20300
C          C       0.52642   0.92658   0.65015   0.21767
C          C       0.49482   0.10483   0.67012   0.21506
C          C       0.50788   0.45800   0.84054  -0.24965
C          C       0.53115   0.55096   0.70863  -0.25297
C          C       0.62210   0.62695   0.57485  -0.18575
C          C       0.41136   0.39394   0.89237  -0.18286
C          C       0.37384   0.70407   0.84688   0.21377
C          C       0.66435   0.30529   0.70097   0.21999
C          C       0.39428   0.75160   0.83302   0.00627
C          C       0.64037   0.26111   0.68703   0.00610
C          C       0.24874   0.64450   0.76570  -0.07127
C          C       0.78918   0.35452   0.80336  -0.07912
C          C       0.20491   0.62477   0.76393  -0.19414
C          C       0.83252   0.37340   0.81488  -0.19289
C          C       0.17368   0.57433   0.86503   0.22435
C          C       0.86221   0.42307   0.75214   0.21181
C          C       0.18743   0.54436   0.96400  -0.20914
C          C       0.84757   0.45305   0.67563  -0.20428
C          C       0.23132   0.56443   0.96289  -0.11148
C          C       0.80430   0.43373   0.66733  -0.10886
C          C       0.10814   0.57428   0.76769   0.09464
C          C       0.92784   0.42189   0.84088   0.09328
C          C       0.06173   0.53479   0.78399  -0.03794
C          C       0.97515   0.46074   0.82330  -0.01553
C          C       0.41084   0.48681   0.80029   0.24099
C          C       0.61657   0.52067   0.54039   0.21352
C          C       0.02721   0.53913   0.80019   0.19825
C          C       0.00969   0.45611   0.81075   0.18670
C          C       0.55230   0.04796   0.70250  -0.23404
C          C       0.46738   0.96772   0.79500  -0.27601
C          C       0.39737   0.96513   0.94334  -0.18418
C          C       0.61969   0.03367   0.71263  -0.18482
C          C       0.13179   0.61025   0.56891   0.21313
C          C       0.92546   0.39494   0.75158   0.22055
C          C       0.37629   0.64146   0.84349   0.10794
C          C       0.66330   0.36454   0.74132   0.11060
C          C       0.39774   0.68582   0.83949  -0.23872
C          C       0.64311   0.32616   0.70649  -0.23383
C          C       0.98448   0.50213   0.82008  -0.25079
C          C       0.05254   0.49371   0.78568  -0.25473
C          C       0.40001   0.62268   0.81348   0.06033
C          C       0.63915   0.38334   0.76483   0.03392
C          C       0.03197   0.41525   0.73647  -0.17937
C          C       0.00425   0.58579   0.81833  -0.18015
C          C       0.43145   0.77288   0.89442  -0.10680
C          C       0.59445   0.22872   0.75484  -0.09470
C          C       0.45018   0.81843   0.87447  -0.20012
C          C       0.57092   0.18667   0.74342  -0.21988
C          C       0.43215   0.84437   0.78775   0.22192
C          C       0.59340   0.17584   0.66471   0.21559
C          C       0.39437   0.82285   0.72842  -0.19926
C          C       0.63963   0.20774   0.59927  -0.19587
C          C       0.37578   0.77739   0.75125  -0.08423
C          C       0.66266   0.24967   0.61001  -0.08520
N          N       0.43936   0.89083   0.22907  -0.37413
N          N       0.55302   0.12458   0.18936  -0.38372
N          N       0.42570   0.55417   0.27292  -0.37641
N          N       0.52167   0.42423   0.31401  -0.37363
N          N       0.53928   0.91690   0.11078  -0.36737
N          N       0.46392   0.11615   0.03381  -0.34040
N          N       0.29760   0.68006   0.32912  -0.33980
N          N       0.66880   0.32080   0.21115  -0.32958
N          N       0.09884   0.53934   0.26996  -0.41606
N          N       0.87420   0.44926   0.15138  -0.41430
N          N       0.34964   0.47804   0.13123  -0.35577
N          N       0.60557   0.54053   0.99488  -0.36000
N          N       0.10108   0.64079   0.98259  -0.37667
N          N       0.85180   0.33740   0.37985  -0.38262
N          N       0.44951   0.89092   0.75701  -0.36836
N          N       0.57225   0.13420   0.64741  -0.38283
N          N       0.46837   0.57132   0.69683  -0.40393
N          N       0.56703   0.43805   0.79373  -0.36802
N          N       0.54777   0.92390   0.56383  -0.36268
N          N       0.47126   0.11562   0.61005  -0.35436
N          N       0.33074   0.68075   0.85429  -0.33518
N          N       0.70625   0.32375   0.71057  -0.35025
N          N       0.12842   0.55125   0.88097  -0.37255
N          N       0.90589   0.44591   0.76609  -0.37927
N          N       0.37897   0.46476   0.76204  -0.36377
N          N       0.63972   0.54166   0.39287  -0.35485
N          N       0.14803   0.64081   0.41250  -0.33274
N          N       0.91945   0.37175   0.68438  -0.35489
O          O       0.56589   0.00162   0.18523  -0.14923
O          O       0.42034   0.00007   0.30401  -0.18475
O          O       0.38309   0.41374   0.40716  -0.15566
O          O       0.55949   0.55543   0.26452  -0.15032
O          O       0.00835   0.56893   0.33378  -0.15734
O          O       0.95229   0.41169   0.24890  -0.16355
O          O       0.57975   0.00531   0.67189  -0.15955
O          O       0.44129   0.00861   0.85740  -0.15069
O          O       0.43298   0.42519   0.96974  -0.20161
O          O       0.60636   0.58139   0.59050  -0.14941
O          O       0.03857   0.58058   0.79340  -0.15291
O          O      -0.00082   0.41338   0.83146  -0.16505

