data_crystal

_audit_creation_method 'AiiDA-DDEC plugin'

_cell_length_a        36.84709
_cell_length_b        36.94392
_cell_length_c         7.94349

_cell_angle_alpha     90.81130
_cell_angle_beta     90.74569
_cell_angle_gamma     120.42211

_symmetry_space_group_name_Hall 'P 1'
_symmetry_space_group_name_H-M  'P 1'

loop_
_symmetry_equiv_pos_as_xyz
 'x,y,z'

loop_
_atom_site_label
_atom_site_type_symbol
_atom_site_fract_x
_atom_site_fract_y
_atom_site_fract_z
_atom_site_charge
H          H       0.44566   0.67958   0.45452   0.10922
H          H       0.32511   0.76257   0.44675   0.10000
H          H       0.24081   0.55964   0.43146   0.10459
H          H       0.56018   0.32467   0.46669   0.10699
H          H       0.68038   0.24133   0.44604   0.10088
H          H       0.76313   0.44520   0.40318   0.10758
H          H       0.48105   0.42610   0.23105   0.11614
H          H       0.57728   0.05388   0.23729   0.11428
H          H       0.94932   0.52437   0.22484   0.11538
H          H       0.52433   0.57553   0.20476   0.11726
H          H       0.42697   0.94606   0.21709   0.11869
H          H       0.05420   0.47949   0.21711   0.11625
H          H       0.42551   0.41083   0.43847   0.10815
H          H       0.60343   0.02108   0.41705   0.11150
H          H       0.99125   0.58085   0.44386   0.10765
H          H       0.58790   0.59000   0.42708   0.10840
H          H       0.38442   0.96932   0.26201   0.09331
H          H       0.01551   0.42339   0.42172   0.11112
H          H       0.41353   0.38246   0.24073   0.09494
H          H       0.61860   0.02891   0.19957   0.09657
H          H       0.97497   0.59234   0.24749   0.09351
H          H       0.59124   0.61889   0.24186   0.09358
H          H       0.38994   0.01875   0.32379   0.11109
H          H       0.02904   0.41197   0.21938   0.09480
H          H       0.37364   0.38786   0.34460   0.11351
H          H       0.62018   0.98844   0.31638   0.11213
H          H       0.02147   0.63207   0.35581   0.11534
H          H       0.63544   0.61444   0.30829   0.11032
H          H       0.41563   0.99736   0.44553   0.10652
H          H       0.98431   0.37219   0.32519   0.11327
H          H       0.38763   0.47511   0.12975   0.12174
H          H       0.52645   0.91035   0.12836   0.11550
H          H       0.09203   0.61489   0.12648   0.11945
H          H       0.61678   0.52435   0.12733   0.11842
H          H       0.47722   0.08727   0.11722   0.12122
H          H       0.91097   0.38755   0.12131   0.12021
H          H       0.31894   0.53876   0.02221   0.10015
H          H       0.45948   0.77685   0.00168   0.09899
H          H       0.22660   0.68307   0.01522   0.10107
H          H       0.68341   0.45799   0.02261   0.09950
H          H       0.53984   0.22089   0.01352   0.09750
H          H       0.77687   0.31794   0.00278   0.10049
H          H       0.24215   0.49624   0.45232   0.09715
H          H       0.51056   0.75477   0.44778   0.09862
H          H       0.25082   0.75415   0.46141   0.10331
H          H       0.75357   0.50656   0.47066   0.09655
H          H       0.49779   0.25246   0.43480   0.09949
H          H       0.74535   0.23887   0.45263   0.10168
H          H       0.33494   0.56955   0.26226   0.10492
H          H       0.43230   0.76248   0.24492   0.10572
H          H       0.24134   0.66848   0.25119   0.09890
H          H       0.66813   0.42868   0.25422   0.10145
H          H       0.56965   0.23646   0.24651   0.09766
H          H       0.76352   0.33365   0.24964   0.10565
H          H       0.20788   0.41749   0.07369   0.09791
H          H       0.58082   0.78733   0.04686   0.09653
H          H       0.21815   0.79436   0.07506   0.09745
H          H       0.79588   0.57906   0.07654   0.09620
H          H       0.41757   0.20712   0.06044   0.09606
H          H       0.78651   0.20777   0.07007   0.09862
H          H       0.25003   0.39394   0.23790   0.09770
H          H       0.60705   0.85300   0.22052   0.09560
H          H       0.15163   0.75340   0.23194   0.09888
H          H       0.75583   0.60533   0.23827   0.09787
H          H       0.39393   0.14157   0.22029   0.09509
H          H       0.85329   0.25067   0.23658   0.09742
H          H       0.48757   0.64376   0.41454   0.12029
H          H       0.35996   0.84037   0.40581   0.11969
H          H       0.16245   0.51745   0.39072   0.11775
H          H       0.51935   0.36183   0.43104   0.12119
H          H       0.64583   0.16320   0.41213   0.11673
H          H       0.84114   0.48796   0.36242   0.12012
H          H       0.32598   0.44298   0.29612   0.10772
H          H       0.55919   0.87971   0.28766   0.10716
H          H       0.12358   0.67808   0.28361   0.10686
H          H       0.68040   0.55776   0.29412   0.10675
H          H       0.44358   0.11641   0.27929   0.10398
H          H       0.88108   0.32659   0.28787   0.10627
H          H       0.44346   0.67922   0.96109   0.10397
H          H       0.32134   0.76099   0.92407   0.10336
H          H       0.23922   0.55822   0.92669   0.10829
H          H       0.55769   0.32333   0.97851   0.10393
H          H       0.67580   0.23899   0.96269   0.10222
H          H       0.75997   0.44400   0.88719   0.10702
H          H       0.47560   0.42365   0.74370   0.11483
H          H       0.57167   0.05442   0.68282   0.12302
H          H       0.94613   0.52134   0.73025   0.11488
H          H       0.51873   0.57300   0.72667   0.11617
H          H       0.42289   0.94652   0.74481   0.11328
H          H       0.05130   0.47686   0.72304   0.11625
H          H       0.41910   0.40433   0.93911   0.10979
H          H       0.60488   0.02737   0.83496   0.09821
H          H       0.98304   0.57541   0.94266   0.10856
H          H       0.57890   0.59658   0.91939   0.10840
H          H       0.40223   0.98266   0.93815   0.10899
H          H       0.01004   0.41898   0.92796   0.10725
H          H       0.40843   0.38046   0.73216   0.09460
H          H       0.61093   0.98289   0.79214   0.10521
H          H       0.97176   0.58902   0.74013   0.09650
H          H       0.58599   0.61674   0.71035   0.09545
H          H       0.38044   0.97005   0.72748   0.09635
H          H       0.02599   0.40915   0.72740   0.09457
H          H       0.36771   0.38304   0.84266   0.11262
H          H       0.57239   0.97884   0.93835   0.10141
H          H       0.01532   0.62764   0.86711   0.11495
H          H       0.62843   0.61559   0.81858   0.11183
H          H       0.38157   0.01265   0.84297   0.11464
H          H       0.97989   0.36848   0.82394   0.11369
H          H       0.38253   0.47434   0.63226   0.12048
H          H       0.52319   0.91283   0.62118   0.12067
H          H       0.08863   0.61221   0.63267   0.12093
H          H       0.61112   0.52238   0.64205   0.11938
H          H       0.47143   0.08934   0.62857   0.12074
H          H       0.90776   0.38470   0.62164   0.11918
H          H       0.31819   0.54215   0.51744   0.09945
H          H       0.46088   0.77927   0.50776   0.09948
H          H       0.22123   0.67878   0.51011   0.10094
H          H       0.67849   0.45805   0.52873   0.09988
H          H       0.54196   0.22219   0.50575   0.10150
H          H       0.77315   0.31467   0.50191   0.09942
H          H       0.24283   0.49039   0.96791   0.09853
H          H       0.50677   0.74998   0.93576   0.09901
H          H       0.25538   0.75847   0.96832   0.10078
H          H       0.75897   0.50500   0.96979   0.09551
H          H       0.49094   0.24617   0.95619   0.10186
H          H       0.74876   0.24201   0.95248   0.10243
H          H       0.33241   0.57139   0.75956   0.10274
H          H       0.43231   0.76483   0.74630   0.09893
H          H       0.23786   0.66658   0.75062   0.10539
H          H       0.66460   0.42872   0.76696   0.10317
H          H       0.56742   0.23811   0.75622   0.10340
H          H       0.75973   0.33158   0.74392   0.10619
H          H       0.20383   0.42309   0.55410   0.09788
H          H       0.58435   0.79498   0.55984   0.09665
H          H       0.21622   0.79170   0.58074   0.09882
H          H       0.78963   0.58017   0.58267   0.09558
H          H       0.42369   0.21833   0.53075   0.09489
H          H       0.78431   0.20524   0.56529   0.10028
H          H       0.24280   0.39620   0.72091   0.09858
H          H       0.60769   0.86040   0.73199   0.09677
H          H       0.15120   0.75214   0.74692   0.09811
H          H       0.74955   0.60459   0.75408   0.09556
H          H       0.39478   0.15346   0.69955   0.09533
H          H       0.85131   0.24867   0.72948   0.09757
H          H       0.48352   0.64095   0.93374   0.11915
H          H       0.35506   0.83860   0.88914   0.11678
H          H       0.16056   0.51548   0.89356   0.12007
H          H       0.51508   0.35845   0.93734   0.11982
H          H       0.64067   0.16129   0.91255   0.11809
H          H       0.83811   0.48632   0.84718   0.12011
H          H       0.31878   0.44253   0.78741   0.10833
H          H       0.55763   0.88477   0.79198   0.10404
H          H       0.12217   0.67652   0.79846   0.10566
H          H       0.67440   0.55563   0.81309   0.10670
H          H       0.43984   0.12383   0.77427   0.10604
H          H       0.87816   0.32423   0.78408   0.10742
C          C       0.36309   0.64672   0.37189   0.00996
C          C       0.35506   0.71265   0.36670   0.00421
C          C       0.29107   0.64396   0.36332  -0.00401
C          C       0.63925   0.35178   0.36631   0.00175
C          C       0.64464   0.28884   0.35894   0.00376
C          C       0.71418   0.36126   0.35485   0.00685
C          C       0.37292   0.68778   0.37478   0.00099
C          C       0.31100   0.68810   0.36659  -0.13125
C          C       0.32081   0.63218   0.37147   0.00363
C          C       0.61968   0.30783   0.35976  -0.12201
C          C       0.68653   0.31890   0.36043  -0.01252
C          C       0.68229   0.36966   0.36682  -0.00714
C          C       0.39992   0.50642   0.18341  -0.22055
C          C       0.49530   0.89107   0.17847  -0.22483
C          C       0.11155   0.60316   0.17619  -0.22265
C          C       0.60478   0.49374   0.18166  -0.22432
C          C       0.50819   0.10740   0.17359  -0.22447
C          C       0.89190   0.39986   0.16983  -0.22392
C          C       0.38776   0.62610   0.35790   0.08076
C          C       0.37713   0.75829   0.34780   0.08188
C          C       0.24536   0.61695   0.34149   0.08123
C          C       0.61644   0.37467   0.35725   0.08154
C          C       0.62654   0.24325   0.34383   0.07890
C          C       0.75931   0.38664   0.32994   0.08157
C          C       0.36834   0.58525   0.29430  -0.16927
C          C       0.41691   0.77984   0.28057  -0.17735
C          C       0.22328   0.63525   0.27874  -0.17430
C          C       0.63555   0.41453   0.29145  -0.17942
C          C       0.58574   0.21968   0.27999  -0.16690
C          C       0.78096   0.36740   0.27337  -0.17162
C          C       0.39118   0.56449   0.26776  -0.00015
C          C       0.43733   0.82359   0.25477   0.00132
C          C       0.17927   0.61226   0.25194   0.00025
C          C       0.61340   0.43612   0.26775   0.00193
C          C       0.56563   0.17579   0.25670   0.00149
C          C       0.82461   0.39083   0.24450  -0.00151
C          C       0.43540   0.58666   0.31131   0.20133
C          C       0.41592   0.84563   0.30084   0.19828
C          C       0.15703   0.56859   0.29422   0.19689
C          C       0.57004   0.41574   0.31599   0.19619
C          C       0.58822   0.15509   0.30458   0.19881
C          C       0.84671   0.43532   0.28066   0.20131
C          C       0.45431   0.62828   0.37988  -0.14602
C          C       0.37503   0.82273   0.36928  -0.15088
C          C       0.18030   0.55036   0.35789  -0.15310
C          C       0.55163   0.37555   0.38992  -0.14916
C          C       0.62987   0.17978   0.37302  -0.15587
C          C       0.82353   0.45429   0.33671  -0.14865
C          C       0.32785   0.49449   0.16411   0.06709
C          C       0.50596   0.83046   0.14888   0.06694
C          C       0.17295   0.67485   0.15351   0.06588
C          C       0.67631   0.50431   0.16286   0.07033
C          C       0.49535   0.16663   0.15054   0.06501
C          C       0.83091   0.32770   0.14982   0.06525
C          C       0.43126   0.64779   0.40184  -0.11819
C          C       0.35614   0.78029   0.39226  -0.12079
C          C       0.22336   0.57372   0.38040  -0.12753
C          C       0.57405   0.35535   0.40954  -0.11734
C          C       0.64874   0.22276   0.39153  -0.13016
C          C       0.78086   0.43072   0.35977  -0.12110
C          C       0.30366   0.50739   0.07293  -0.13229
C          C       0.49153   0.79333   0.05243  -0.13246
C          C       0.21046   0.69843   0.06603  -0.12582
C          C       0.69939   0.48994   0.07338  -0.13352
C          C       0.50821   0.20364   0.06188  -0.12640
C          C       0.79325   0.30315   0.05691  -0.13062
C          C       0.26081   0.47986   0.04087  -0.08395
C          C       0.51837   0.77811   0.01503  -0.08442
C          C       0.22659   0.74108   0.03839  -0.08503
C          C       0.74200   0.51666   0.04237  -0.08700
C          C       0.48037   0.21795   0.02895  -0.08331
C          C       0.77749   0.26032   0.02792  -0.08296
C          C       0.44320   0.53049   0.23105   0.24267
C          C       0.47203   0.91025   0.22949   0.23689
C          C       0.09212   0.56063   0.22499   0.23158
C          C       0.56210   0.47107   0.23045   0.23356
C          C       0.53227   0.08937   0.22849   0.23770
C          C       0.91145   0.44307   0.21692   0.23852
C          C       0.24128   0.43887   0.09918  -0.10261
C          C       0.56004   0.79938   0.07527  -0.10332
C          C       0.20556   0.76115   0.09735  -0.09631
C          C       0.76264   0.55836   0.10078  -0.10173
C          C       0.43916   0.19581   0.08574  -0.10201
C          C       0.79893   0.24117   0.09225  -0.09853
C          C       0.47199   0.51373   0.21603  -0.03351
C          C       0.48897   0.95610   0.22268  -0.03642
C          C       0.04587   0.53213   0.21767  -0.02576
C          C       0.53319   0.48778   0.21435  -0.02582
C          C       0.51537   0.04346   0.22061  -0.02808
C          C       0.95759   0.47171   0.21306  -0.03438
C          C       0.26500   0.42554   0.18933  -0.09266
C          C       0.57482   0.83634   0.17130  -0.09707
C          C       0.16807   0.73810   0.18315  -0.09841
C          C       0.74011   0.57317   0.18937  -0.09726
C          C       0.42578   0.15882   0.17350  -0.09618
C          C       0.83651   0.26524   0.18408  -0.09296
C          C       0.45960   0.47070   0.22201   0.19533
C          C       0.53228   0.98719   0.23168   0.19423
C          C       0.01564   0.54498   0.22450   0.19023
C          C       0.54550   0.53070   0.20566   0.19094
C          C       0.47215   0.01246   0.21767   0.19017
C          C       0.98789   0.45892   0.21587   0.19306
C          C       0.30781   0.45304   0.22169  -0.12792
C          C       0.54807   0.85168   0.20808  -0.12867
C          C       0.15199   0.69551   0.21131  -0.12819
C          C       0.69750   0.54648   0.22023  -0.12656
C          C       0.45357   0.14442   0.20587  -0.12674
C          C       0.85237   0.30805   0.21253  -0.12925
C          C       0.48982   0.45878   0.22037  -0.23206
C          C       0.54441   0.02946   0.22802  -0.23921
C          C       0.97294   0.51512   0.21882  -0.23388
C          C       0.51523   0.54262   0.20610  -0.22562
C          C       0.46005   0.97016   0.21770  -0.22519
C          C       0.03057   0.48876   0.21456  -0.23457
C          C       0.40735   0.40344   0.31933  -0.18601
C          C       0.60335   0.00550   0.29794  -0.18724
C          C       0.00228   0.59834   0.32674  -0.18596
C          C       0.60096   0.59820   0.30040  -0.18694
C          C       0.40600   0.00065   0.31775  -0.18723
C          C       0.00285   0.40588   0.30186  -0.18876
C          C       0.37332   0.52237   0.20263   0.06392
C          C       0.47892   0.84817   0.19125   0.06356
C          C       0.15478   0.62975   0.19055   0.06345
C          C       0.63111   0.47740   0.20150   0.06212
C          C       0.52360   0.15013   0.19056   0.06748
C          C       0.84897   0.37317   0.18510   0.06447
C          C       0.36319   0.65046   0.86926  -0.00394
C          C       0.35772   0.71323   0.85574   0.00347
C          C       0.28812   0.64092   0.85677   0.01043
C          C       0.63702   0.35187   0.88530   0.00108
C          C       0.64194   0.28864   0.88128   0.00495
C          C       0.71091   0.36022   0.84527   0.00414
C          C       0.38286   0.69448   0.86599  -0.14081
C          C       0.31561   0.68350   0.85594  -0.01074
C          C       0.32024   0.63301   0.86832   0.00435
C          C       0.61788   0.30818   0.90401  -0.12202
C          C       0.68355   0.31813   0.86328  -0.00582
C          C       0.67965   0.36936   0.86572  -0.00645
C          C       0.39509   0.50546   0.68867  -0.22224
C          C       0.49237   0.89303   0.67295  -0.22587
C          C       0.10814   0.60052   0.68297  -0.21870
C          C       0.59929   0.49170   0.69564  -0.22308
C          C       0.50320   0.10910   0.67874  -0.22340
C          C       0.88860   0.39716   0.66731  -0.22236
C          C       0.38554   0.62711   0.86002   0.08367
C          C       0.37552   0.75856   0.83596   0.07993
C          C       0.24252   0.61513   0.83982   0.07926
C          C       0.61370   0.37423   0.87315   0.08346
C          C       0.62315   0.24300   0.85981   0.07973
C          C       0.75595   0.38515   0.81813   0.07888
C          C       0.36550   0.58622   0.79633  -0.18631
C          C       0.41598   0.78163   0.77583  -0.17164
C          C       0.22030   0.63350   0.78058  -0.16315
C          C       0.63200   0.41383   0.80501  -0.18331
C          C       0.58296   0.22074   0.78875  -0.16840
C          C       0.77741   0.36545   0.76444  -0.16946
C          C       0.38743   0.56434   0.77284  -0.00137
C          C       0.43562   0.82525   0.75176   0.00033
C          C       0.17618   0.61008   0.75670   0.00016
C          C       0.60900   0.43456   0.78010   0.00220
C          C       0.56231   0.17693   0.75888  -0.00009
C          C       0.82114   0.38853   0.73632  -0.00360
C          C       0.43121   0.58517   0.82280   0.19588
C          C       0.41286   0.84617   0.79383   0.19831
C          C       0.15430   0.56647   0.79970   0.20058
C          C       0.56555   0.41352   0.82712   0.19684
C          C       0.58404   0.15529   0.80453   0.19827
C          C       0.84339   0.43316   0.77015   0.20176
C          C       0.45072   0.62662   0.89313  -0.14797
C          C       0.37138   0.82194   0.85603  -0.15148
C          C       0.17799   0.54842   0.86086  -0.14893
C          C       0.54770   0.37320   0.89963  -0.14880
C          C       0.62541   0.17875   0.87645  -0.15215
C          C       0.82037   0.45258   0.82310  -0.14929
C          C       0.32394   0.49586   0.65851   0.06776
C          C       0.50563   0.83398   0.65341   0.06966
C          C       0.16962   0.67217   0.65852   0.06185
C          C       0.67104   0.50327   0.67553   0.07028
C          C       0.49415   0.17073   0.64511   0.06391
C          C       0.82769   0.32505   0.64665   0.06552
C          C       0.42871   0.64731   0.90945  -0.12311
C          C       0.35300   0.77927   0.87554  -0.12470
C          C       0.22109   0.57194   0.87943  -0.12184
C          C       0.57104   0.35407   0.92235  -0.11812
C          C       0.64461   0.22150   0.90346  -0.12727
C          C       0.77765   0.42933   0.84530  -0.12105
C          C       0.30154   0.51050   0.56507  -0.13445
C          C       0.49278   0.79676   0.55960  -0.13068
C          C       0.20626   0.69486   0.56522  -0.12988
C          C       0.69423   0.48979   0.58171  -0.13530
C          C       0.51002   0.20742   0.55122  -0.12602
C          C       0.78988   0.30014   0.55495  -0.13051
C          C       0.25870   0.48446   0.52746  -0.08745
C          C       0.52093   0.78297   0.52548  -0.08418
C          C       0.22285   0.73754   0.53694  -0.08192
C          C       0.73654   0.51732   0.54803  -0.08594
C          C       0.48488   0.22442   0.51027  -0.08321
C          C       0.77436   0.25736   0.52618  -0.08541
C          C       0.43795   0.52832   0.74304   0.23578
C          C       0.46808   0.91133   0.72126   0.23761
C          C       0.08905   0.55809   0.73299   0.23770
C          C       0.55671   0.46861   0.74495   0.23559
C          C       0.52702   0.09035   0.72795   0.23798
C          C       0.90826   0.44044   0.71301   0.23900
C          C       0.23725   0.44322   0.58323  -0.10212
C          C       0.56244   0.80575   0.58688  -0.10319
C          C       0.20317   0.75839   0.60213  -0.10067
C          C       0.75669   0.55876   0.60943  -0.10358
C          C       0.44326   0.20507   0.56296  -0.09901
C          C       0.79638   0.23857   0.58816  -0.09840
C          C       0.46650   0.51120   0.73125  -0.03454
C          C       0.48443   0.95711   0.71177  -0.02643
C          C       0.04283   0.52940   0.72532  -0.02900
C          C       0.52777   0.48535   0.73180  -0.02972
C          C       0.51010   0.04449   0.71562  -0.03546
C          C       0.95454   0.46888   0.71389  -0.03283
C          C       0.25918   0.42807   0.67480  -0.09546
C          C       0.57565   0.84268   0.68122  -0.09595
C          C       0.16651   0.73614   0.69386  -0.09613
C          C       0.73407   0.57258   0.70350  -0.09407
C          C       0.42692   0.16842   0.65542  -0.09852
C          C       0.83410   0.26296   0.67877  -0.09306
C          C       0.45402   0.46820   0.73707   0.19160
C          C       0.52710   0.98842   0.69568   0.19052
C          C       0.01253   0.54217   0.73346   0.19289
C          C       0.54021   0.52843   0.72873   0.19324
C          C       0.46728   0.01319   0.73346   0.19485
C          C       0.98486   0.45607   0.71790   0.19247
C          C       0.30203   0.45406   0.71204  -0.12840
C          C       0.54758   0.85663   0.71439  -0.12779
C          C       0.14990   0.69348   0.72206  -0.12859
C          C       0.69174   0.54516   0.73625  -0.12805
C          C       0.45212   0.15147   0.69669  -0.12835
C          C       0.84951   0.30566   0.70839  -0.12977
C          C       0.48434   0.45635   0.73523  -0.23992
C          C       0.53876   0.03059   0.69554  -0.21362
C          C       0.96987   0.51227   0.72375  -0.23547
C          C       0.50982   0.54017   0.72624  -0.23147
C          C       0.45538   0.97096   0.72931  -0.24251
C          C       0.02758   0.48604   0.71983  -0.23402
C          C       0.40157   0.39946   0.81978  -0.18663
C          C       0.58827   0.99294   0.82035  -0.18816
C          C       0.99696   0.59429   0.83063  -0.18784
C          C       0.59420   0.59914   0.79876  -0.18721
C          C       0.39838   0.99572   0.82020  -0.18822
C          C       0.99889   0.40240   0.80547  -0.18594
C          C       0.36922   0.52243   0.70449   0.05949
C          C       0.47731   0.85053   0.69052   0.06582
C          C       0.15134   0.62717   0.69610   0.06768
C          C       0.62599   0.47576   0.71414   0.06146
C          C       0.52021   0.15219   0.69193   0.06881
C          C       0.84556   0.37055   0.68086   0.06361
N          N       0.46040   0.56975   0.29300  -0.34430
N          N       0.43299   0.88770   0.28690  -0.34207
N          N       0.11453   0.54374   0.28080  -0.34037
N          N       0.54541   0.43302   0.29692  -0.33809
N          N       0.57147   0.11285   0.29159  -0.34390
N          N       0.88901   0.46034   0.26785  -0.34111
N          N       0.45537   0.56729   0.80810  -0.34008
N          N       0.42913   0.88817   0.77939  -0.34098
N          N       0.11179   0.54148   0.78812  -0.34242
N          N       0.54041   0.43028   0.80868  -0.34272
N          N       0.56665   0.11306   0.78705  -0.34467
N          N       0.88573   0.45796   0.75959  -0.33880
O          O       0.41718   0.44130   0.23451  -0.17447
O          O       0.56122   0.97407   0.24903  -0.17017
O          O       0.02960   0.58747   0.24102  -0.17453
O          O       0.58804   0.56066   0.20082  -0.17876
O          O       0.44218   0.02472   0.21642  -0.17847
O          O       0.97412   0.41647   0.22490  -0.17253
O          O       0.41154   0.43898   0.75001  -0.17641
O          O       0.55867   0.97833   0.68010  -0.19098
O          O       0.02643   0.58445   0.75762  -0.17319
O          O       0.58277   0.55822   0.73339  -0.17258
O          O       0.43863   0.02634   0.75855  -0.16969
O          O       0.97105   0.41357   0.72423  -0.17303

