data_crystal

_audit_creation_method 'AiiDA-DDEC plugin'

_cell_length_a        36.62417
_cell_length_b        36.82781
_cell_length_c         7.99310

_cell_angle_alpha     89.85861
_cell_angle_beta     92.56675
_cell_angle_gamma     120.78679

_symmetry_space_group_name_Hall 'P 1'
_symmetry_space_group_name_H-M  'P 1'

loop_
_symmetry_equiv_pos_as_xyz
 'x,y,z'

loop_
_atom_site_label
_atom_site_type_symbol
_atom_site_fract_x
_atom_site_fract_y
_atom_site_fract_z
_atom_site_charge
H          H       0.35927   0.83780   0.39232   0.12057
H          H       0.64468   0.16205   0.41845   0.12059
H          H       0.32447   0.75956   0.43039   0.11046
H          H       0.67956   0.24062   0.46028   0.10972
H          H       0.57926   0.98388   0.42186   0.10269
H          H       0.38223   0.97118   0.20821   0.09455
H          H       0.61313   0.02723   0.29293   0.09675
H          H       0.38845   0.01453   0.33362   0.11377
H          H       0.61379   0.97899   0.28257   0.10694
H          H       0.40806   0.98173   0.41386   0.10940
H          H       0.52360   0.90920   0.09701   0.12115
H          H       0.47609   0.08701   0.09114   0.12031
H          H       0.45433   0.77576   0.48004   0.09659
H          H       0.54460   0.22112   0.47650   0.09663
H          H       0.50077   0.74709   0.42379   0.09500
H          H       0.49856   0.25097   0.41216   0.09562
H          H       0.41337   0.70817   0.33510   0.11340
H          H       0.58789   0.28895   0.36139   0.11349
H          H       0.58041   0.78676   0.05032   0.09743
H          H       0.41878   0.20996   0.03024   0.09604
H          H       0.33345   0.56988   0.22639   0.10172
H          H       0.66636   0.42714   0.23933   0.10160
H          H       0.60581   0.85228   0.22364   0.09877
H          H       0.39451   0.14376   0.18906   0.09894
H          H       0.55739   0.87904   0.27353   0.10625
H          H       0.44357   0.11719   0.24842   0.10832
H          H       0.48277   0.63953   0.45824   0.12079
H          H       0.51973   0.36094   0.43586   0.12097
H          H       0.44041   0.67447   0.48898   0.10422
H          H       0.56089   0.32456   0.47598   0.10443
H          H       0.47928   0.42579   0.20445   0.12256
H          H       0.52398   0.57611   0.25856   0.11550
H          H       0.42567   0.40005   0.36647   0.10438
H          H       0.58643   0.59708   0.45307   0.10858
H          H       0.37244   0.38026   0.28246   0.10510
H          H       0.59160   0.61943   0.24950   0.09555
H          H       0.39517   0.42129   0.44261   0.10034
H          H       0.63560   0.61784   0.34875   0.11418
H          H       0.38665   0.47544   0.12148   0.12148
H          H       0.61544   0.52414   0.12797   0.12042
H          H       0.31935   0.54482   0.49328   0.09506
H          H       0.67672   0.45591   0.51563   0.09701
H          H       0.29825   0.58916   0.39274   0.11165
H          H       0.70314   0.41031   0.38521   0.11294
H          H       0.24289   0.49844   0.41280   0.10114
H          H       0.75210   0.50365   0.45620   0.10095
H          H       0.24226   0.67090   0.26194   0.10701
H          H       0.75856   0.33060   0.24454   0.10933
H          H       0.20565   0.41634   0.01653   0.09896
H          H       0.79411   0.57634   0.04921   0.09926
H          H       0.24629   0.39279   0.19898   0.09892
H          H       0.75683   0.60442   0.21131   0.09931
H          H       0.16079   0.52516   0.47641   0.11829
H          H       0.84214   0.47907   0.46114   0.11814
H          H       0.32240   0.44238   0.27676   0.10521
H          H       0.68147   0.55740   0.27710   0.10605
H          H       0.23971   0.56652   0.51130   0.09930
H          H       0.76445   0.43591   0.50003   0.09834
H          H       0.57627   0.05261   0.16867   0.12314
H          H       0.42516   0.94501   0.22025   0.11552
H          H       0.99231   0.58418   0.45964   0.10846
H          H       0.01535   0.42105   0.42347   0.11017
H          H       0.96980   0.58983   0.26373   0.09286
H          H       0.03075   0.41499   0.21969   0.09271
H          H       0.01821   0.63336   0.35226   0.11158
H          H       0.98576   0.37139   0.31009   0.11262
H          H       0.09036   0.61623   0.13565   0.12088
H          H       0.90760   0.38650   0.12510   0.12031
H          H       0.22514   0.68555   0.03233   0.10685
H          H       0.77166   0.31617   0.00715   0.10428
H          H       0.25219   0.75796   0.47672   0.10331
H          H       0.74191   0.24018   0.43312   0.10089
H          H       0.21404   0.79589   0.06537   0.09440
H          H       0.78401   0.20641   0.03341   0.09450
H          H       0.14831   0.75516   0.22408   0.09621
H          H       0.85101   0.24737   0.21134   0.09476
H          H       0.12182   0.68026   0.28937   0.10467
H          H       0.87827   0.32260   0.28450   0.10504
H          H       0.42915   0.76081   0.20474   0.09562
H          H       0.57109   0.23653   0.21409   0.09426
H          H       0.94536   0.52212   0.24709   0.11572
H          H       0.05429   0.48197   0.23384   0.11673
H          H       0.35808   0.83887   0.89806   0.11984
H          H       0.64505   0.16313   0.93313   0.12049
H          H       0.32309   0.76064   0.93969   0.11051
H          H       0.68016   0.24191   0.96951   0.11074
H          H       0.60174   0.01797   0.89554   0.11131
H          H       0.41057   0.98943   0.92129   0.10652
H          H       0.61884   0.02811   0.68388   0.09731
H          H       0.38250   0.97073   0.72103   0.09416
H          H       0.61844   0.98566   0.79563   0.11227
H          H       0.38836   0.01751   0.81620   0.11216
H          H       0.52269   0.90940   0.60769   0.11712
H          H       0.47797   0.08829   0.58948   0.12081
H          H       0.45851   0.77666   0.97227   0.09502
H          H       0.53996   0.21985   0.97710   0.09822
H          H       0.50635   0.74911   0.92418   0.09664
H          H       0.49175   0.24761   0.92264   0.09779
H          H       0.41299   0.71019   0.84949   0.11336
H          H       0.58813   0.28927   0.86626   0.11291
H          H       0.57569   0.78409   0.54046   0.09660
H          H       0.42495   0.21547   0.51265   0.09817
H          H       0.33322   0.57224   0.73106   0.10210
H          H       0.66432   0.42763   0.74057   0.10091
H          H       0.60346   0.85045   0.71130   0.09688
H          H       0.39796   0.14946   0.67559   0.09882
H          H       0.55649   0.87854   0.76821   0.10888
H          H       0.44478   0.12059   0.74283   0.10808
H          H       0.48292   0.64014   0.95558   0.12047
H          H       0.51820   0.35833   0.94437   0.12040
H          H       0.44153   0.67599   0.99136   0.10497
H          H       0.56113   0.32379   0.98144   0.10389
H          H       0.47417   0.42286   0.73818   0.11628
H          H       0.52170   0.57443   0.74619   0.11609
H          H       0.41435   0.40007   0.91969   0.11339
H          H       0.58289   0.59349   0.94813   0.10798
H          H       0.40559   0.38118   0.70533   0.09541
H          H       0.59016   0.61741   0.74665   0.09338
H          H       0.36403   0.38262   0.80964   0.11390
H          H       0.63256   0.61365   0.84849   0.11478
H          H       0.38417   0.47650   0.61797   0.11589
H          H       0.61007   0.52162   0.63249   0.12095
H          H       0.31853   0.53887   0.98698   0.09525
H          H       0.67899   0.45492   0.01160   0.09605
H          H       0.29855   0.59005   0.89592   0.11156
H          H       0.70288   0.41117   0.87687   0.11220
H          H       0.24230   0.48983   0.91160   0.10204
H          H       0.75462   0.50112   0.95060   0.10061
H          H       0.24089   0.67013   0.76988   0.10578
H          H       0.75738   0.33022   0.74390   0.10840
H          H       0.20424   0.42348   0.50103   0.09973
H          H       0.79019   0.57852   0.55902   0.09918
H          H       0.24318   0.39582   0.67109   0.09877
H          H       0.75141   0.60494   0.72068   0.09680
H          H       0.16116   0.52357   0.97707   0.11893
H          H       0.84335   0.47893   0.95571   0.11879
H          H       0.31931   0.44306   0.75588   0.10930
H          H       0.67613   0.55647   0.78439   0.10615
H          H       0.23998   0.56597   0.01397   0.10004
H          H       0.76538   0.43711   0.99414   0.09813
H          H       0.57723   0.05339   0.70898   0.11919
H          H       0.42477   0.94603   0.71423   0.11659
H          H       0.98628   0.58007   0.95530   0.10755
H          H       0.00731   0.41544   0.92777   0.10622
H          H       0.96888   0.58597   0.74808   0.09379
H          H       0.02964   0.41168   0.73737   0.09170
H          H       0.01456   0.62976   0.85190   0.11336
H          H       0.98134   0.36736   0.80348   0.11057
H          H       0.08921   0.61376   0.63767   0.12010
H          H       0.90623   0.38396   0.62254   0.12029
H          H       0.22440   0.68308   0.53865   0.10734
H          H       0.76954   0.31476   0.50898   0.10454
H          H       0.25185   0.76013   0.96916   0.10285
H          H       0.74470   0.24165   0.93253   0.10183
H          H       0.21405   0.79393   0.56631   0.09557
H          H       0.78119   0.20454   0.52833   0.09652
H          H       0.14753   0.75351   0.72060   0.09664
H          H       0.84926   0.24530   0.70020   0.09519
H          H       0.12039   0.67855   0.78745   0.10559
H          H       0.87714   0.32051   0.77550   0.10479
H          H       0.42715   0.76102   0.71257   0.09598
H          H       0.57192   0.23732   0.71925   0.09492
H          H       0.94504   0.51961   0.75353   0.11435
H          H       0.05345   0.47917   0.72025   0.11790
C          C       0.35938   0.64586   0.36540   0.11526
C          C       0.64181   0.35258   0.37192   0.11569
C          C       0.37925   0.68969   0.34959  -0.23446
C          C       0.62238   0.30855   0.36658  -0.23419
C          C       0.38401   0.62445   0.35551   0.05764
C          C       0.61676   0.37365   0.35687   0.05727
C          C       0.49273   0.88966   0.14859  -0.22635
C          C       0.50769   0.10727   0.14844  -0.22281
C          C       0.36600   0.58492   0.27773  -0.16972
C          C       0.63437   0.41284   0.28283  -0.17210
C          C       0.38906   0.56400   0.26038  -0.00190
C          C       0.61208   0.43462   0.26103  -0.00032
C          C       0.43265   0.58499   0.32351   0.19661
C          C       0.56938   0.41471   0.31572   0.19700
C          C       0.45031   0.62513   0.40572  -0.15074
C          C       0.55167   0.37454   0.39143  -0.15106
C          C       0.50420   0.82944   0.12777   0.07089
C          C       0.49561   0.16707   0.11930   0.06965
C          C       0.42678   0.64430   0.42162  -0.12745
C          C       0.57460   0.35457   0.41228  -0.12499
C          C       0.49037   0.79250   0.03110  -0.13526
C          C       0.50857   0.20396   0.02785  -0.13325
C          C       0.51753   0.77724   0.00309  -0.08960
C          C       0.48114   0.21925   0.99571  -0.08881
C          C       0.44160   0.52998   0.24023   0.23630
C          C       0.56157   0.47101   0.23795   0.23933
C          C       0.55922   0.79861   0.07217  -0.10333
C          C       0.44001   0.19781   0.05398  -0.10333
C          C       0.47096   0.51363   0.23038  -0.02412
C          C       0.53280   0.48819   0.22832  -0.03495
C          C       0.57359   0.83560   0.16751  -0.09625
C          C       0.42633   0.16056   0.14189  -0.09387
C          C       0.45844   0.47057   0.21510   0.18922
C          C       0.54555   0.53148   0.24275   0.19670
C          C       0.54642   0.85086   0.19521  -0.12612
C          C       0.45381   0.14538   0.17458  -0.12883
C          C       0.48908   0.45901   0.21364  -0.21572
C          C       0.51501   0.54325   0.24348  -0.24060
C          C       0.40167   0.40848   0.33101  -0.18799
C          C       0.60084   0.60110   0.33154  -0.18692
C          C       0.37163   0.52236   0.18903   0.06562
C          C       0.62967   0.47613   0.19400   0.06441
C          C       0.29287   0.64487   0.37872   0.22020
C          C       0.70955   0.35539   0.37553   0.21976
C          C       0.31529   0.62334   0.38186  -0.23573
C          C       0.68635   0.37600   0.38030  -0.23502
C          C       0.39850   0.50639   0.17858  -0.22328
C          C       0.60366   0.49332   0.18231  -0.21945
C          C       0.24589   0.62112   0.37906   0.02616
C          C       0.75635   0.38047   0.36724   0.02431
C          C       0.22370   0.63880   0.30556  -0.15156
C          C       0.77735   0.36312   0.29035  -0.15113
C          C       0.17878   0.61601   0.28506  -0.00285
C          C       0.82172   0.38676   0.26955  -0.00236
C          C       0.15602   0.57337   0.34318   0.19900
C          C       0.84514   0.43008   0.32813   0.19870
C          C       0.17920   0.55661   0.42589  -0.15462
C          C       0.82325   0.44690   0.41092  -0.15417
C          C       0.32597   0.49437   0.13831   0.06709
C          C       0.67465   0.50260   0.14955   0.06582
C          C       0.22286   0.57971   0.44366  -0.12889
C          C       0.78019   0.42284   0.43072  -0.12809
C          C       0.30250   0.50728   0.03728  -0.13555
C          C       0.69625   0.48731   0.05931  -0.13555
C          C       0.25955   0.47941   0.99349  -0.08444
C          C       0.73886   0.51358   0.02340  -0.08561
C          C       0.09048   0.56329   0.25353   0.23947
C          C       0.90922   0.44043   0.24162   0.23715
C          C       0.23908   0.43806   0.05114  -0.10127
C          C       0.76092   0.55589   0.07748  -0.09495
C          C       0.04393   0.53347   0.23794  -0.03097
C          C       0.95550   0.47050   0.23135  -0.02936
C          C       0.26199   0.42474   0.15166  -0.09470
C          C       0.73989   0.57169   0.16655  -0.09957
C          C       0.01265   0.54505   0.24093   0.19096
C          C       0.98687   0.45900   0.22731   0.19350
C          C       0.30494   0.45254   0.19485  -0.12736
C          C       0.69732   0.54536   0.20265  -0.12556
C          C      -0.00040   0.59888   0.33628  -0.18715
C          C       0.00364   0.40584   0.29881  -0.18889
C          C       0.15378   0.63245   0.21243   0.06783
C          C       0.84562   0.37027   0.19781   0.06740
C          C       0.54290   0.02872   0.17783  -0.21587
C          C       0.45813   0.96928   0.20564  -0.24041
C          C       0.11003   0.60530   0.19556  -0.22308
C          C       0.88892   0.39774   0.18320  -0.22187
C          C       0.35485   0.70924   0.34562   0.21919
C          C       0.64750   0.28985   0.36033   0.21854
C          C       0.37489   0.75523   0.31987   0.03106
C          C       0.62723   0.24350   0.33882   0.03531
C          C       0.17150   0.67725   0.16650   0.06454
C          C       0.82723   0.32507   0.15037   0.06709
C          C       0.41392   0.77754   0.24718  -0.16921
C          C       0.58707   0.22026   0.26001  -0.17363
C          C       0.20859   0.70070   0.07803  -0.12469
C          C       0.78901   0.30128   0.05396  -0.12685
C          C       0.43480   0.82171   0.22592  -0.00278
C          C       0.56630   0.17599   0.23524  -0.00125
C          C       0.22362   0.74300   0.04140  -0.08156
C          C       0.77378   0.25899   0.01134  -0.08151
C          C       0.41408   0.84376   0.27745   0.20010
C          C       0.58821   0.15480   0.29183   0.19968
C          C       0.20215   0.76290   0.09373  -0.10101
C          C       0.79601   0.23937   0.06691  -0.09812
C          C       0.37384   0.82029   0.35037  -0.15562
C          C       0.62936   0.17910   0.37284  -0.15273
C          C       0.16509   0.73996   0.18087  -0.09952
C          C       0.83380   0.26247   0.16450  -0.09923
C          C       0.35477   0.77738   0.37151  -0.10278
C          C       0.64843   0.22217   0.39602  -0.10523
C          C       0.14994   0.69766   0.21678  -0.12927
C          C       0.84930   0.30487   0.20548  -0.12973
C          C       0.46972   0.90879   0.20036   0.23796
C          C       0.53183   0.08911   0.20634   0.23891
C          C       0.48692   0.95495   0.19086  -0.02745
C          C       0.51449   0.04301   0.19452  -0.03243
C          C       0.53022   0.98607   0.17748   0.18980
C          C       0.47104   0.01194   0.20957   0.19519
C          C       0.59364   0.99260   0.29933  -0.18692
C          C       0.40310   0.99613   0.30099  -0.18449
C          C       0.96978   0.51393   0.23830  -0.23219
C          C       0.02973   0.49016   0.23093  -0.23052
C          C       0.47645   0.84664   0.16350   0.06326
C          C       0.52390   0.15036   0.16346   0.06277
C          C       0.35943   0.64732   0.87339   0.11568
C          C       0.64168   0.35316   0.87236   0.11643
C          C       0.37880   0.69117   0.86121  -0.23462
C          C       0.62258   0.30916   0.86986  -0.23451
C          C       0.38428   0.62621   0.86038   0.05899
C          C       0.61593   0.37353   0.85960   0.05486
C          C       0.49165   0.88997   0.65807  -0.22185
C          C       0.50907   0.10832   0.65110  -0.22133
C          C       0.36583   0.58681   0.78117  -0.17585
C          C       0.63249   0.41268   0.78611  -0.17005
C          C       0.38839   0.56557   0.76018  -0.00008
C          C       0.60925   0.43354   0.76650  -0.00237
C          C       0.43196   0.58597   0.82279   0.19672
C          C       0.56652   0.41266   0.82173   0.19618
C          C       0.45032   0.62617   0.90505  -0.15149
C          C       0.55004   0.37268   0.89819  -0.15234
C          C       0.50184   0.82901   0.62876   0.07015
C          C       0.49822   0.16907   0.61574   0.06893
C          C       0.42728   0.64580   0.92369  -0.12555
C          C       0.57394   0.35368   0.91737  -0.12493
C          C       0.48669   0.79156   0.53381  -0.13789
C          C       0.51285   0.20609   0.52355  -0.13481
C          C       0.51303   0.77561   0.50136  -0.08718
C          C       0.48673   0.22265   0.48642  -0.08884
C          C       0.43942   0.52991   0.74177   0.23915
C          C       0.55687   0.46786   0.74388   0.23615
C          C       0.55520   0.79663   0.56502  -0.10060
C          C       0.44524   0.20244   0.54099  -0.10242
C          C       0.46787   0.51245   0.73598  -0.03400
C          C       0.52798   0.48493   0.73593  -0.02954
C          C       0.57086   0.83403   0.65906  -0.09406
C          C       0.43000   0.16525   0.63059  -0.09683
C          C       0.45416   0.46887   0.73667   0.19288
C          C       0.54166   0.52850   0.74062   0.19016
C          C       0.54454   0.85008   0.69060  -0.12738
C          C       0.45618   0.14874   0.66785  -0.12618
C          C       0.48394   0.45608   0.73518  -0.23438
C          C       0.51184   0.54120   0.73975  -0.22989
C          C       0.39852   0.39861   0.79751  -0.18759
C          C       0.59792   0.59784   0.82784  -0.18717
C          C       0.37038   0.52416   0.68572   0.06314
C          C       0.62588   0.47494   0.69963   0.06610
C          C       0.29233   0.64523   0.88649   0.21965
C          C       0.70962   0.35636   0.87401   0.21932
C          C       0.31528   0.62427   0.88793  -0.23481
C          C       0.68625   0.37685   0.87649  -0.23536
C          C       0.39660   0.50740   0.67650  -0.22123
C          C       0.59892   0.49096   0.68728  -0.22000
C          C       0.24534   0.62069   0.88562   0.02655
C          C       0.75636   0.38100   0.86420   0.02450
C          C       0.22270   0.63793   0.81270  -0.15197
C          C       0.77672   0.36280   0.78841  -0.15048
C          C       0.17786   0.61449   0.79015  -0.00249
C          C       0.82106   0.38567   0.76709  -0.00255
C          C       0.15554   0.57167   0.84627   0.19737
C          C       0.84506   0.42904   0.82487   0.19918
C          C       0.17913   0.55530   0.92866  -0.15633
C          C       0.82384   0.44671   0.90667  -0.15588
C          C       0.32486   0.49744   0.63075   0.06767
C          C       0.67084   0.50242   0.65600   0.06713
C          C       0.22278   0.57898   0.94768  -0.12704
C          C       0.78074   0.42344   0.92618  -0.12767
C          C       0.30239   0.51251   0.53575  -0.13871
C          C       0.69325   0.48815   0.56520  -0.13787
C          C       0.25937   0.48617   0.48912  -0.08509
C          C       0.73579   0.51527   0.53027  -0.08188
C          C       0.08990   0.56095   0.75463   0.23829
C          C       0.90869   0.43837   0.73794   0.23889
C          C       0.23777   0.44401   0.53743  -0.09619
C          C       0.75704   0.55742   0.58634  -0.09854
C          C       0.04346   0.53094   0.73727  -0.03044
C          C       0.95501   0.46817   0.72705  -0.02813
C          C       0.25970   0.42844   0.63105  -0.09417
C          C       0.73517   0.57226   0.67543  -0.09447
C          C       0.01229   0.54260   0.74624   0.19154
C          C       0.98619   0.45659   0.71799   0.19136
C          C       0.30269   0.45484   0.67771  -0.12967
C          C       0.69263   0.54511   0.71024  -0.12909
C          C       0.99675   0.59531   0.83415  -0.18701
C          C      -0.00010   0.40195   0.79962  -0.18517
C          C       0.15269   0.63055   0.71598   0.06768
C          C       0.84446   0.36858   0.69546   0.06870
C          C       0.54373   0.02922   0.70535  -0.23307
C          C       0.45811   0.97017   0.70804  -0.23399
C          C       0.10906   0.60307   0.69804  -0.21935
C          C       0.88785   0.39559   0.68041  -0.22587
C          C       0.35381   0.71011   0.85653   0.21767
C          C       0.64789   0.29069   0.86458   0.21993
C          C       0.37348   0.75600   0.82977   0.03415
C          C       0.62784   0.24437   0.84586   0.03400
C          C       0.17042   0.67524   0.66899   0.06322
C          C       0.82561   0.32335   0.64744   0.06610
C          C       0.41231   0.77807   0.75559  -0.17358
C          C       0.58778   0.22107   0.76678  -0.17627
C          C       0.20791   0.69846   0.58261  -0.12433
C          C       0.78695   0.29974   0.55353  -0.12584
C          C       0.43330   0.82216   0.73296  -0.00150
C          C       0.56723   0.17684   0.74236  -0.00200
C          C       0.22346   0.74085   0.54616  -0.07954
C          C       0.77130   0.25741   0.51017  -0.08143
C          C       0.41273   0.84434   0.78467   0.19941
C          C       0.58879   0.15560   0.80262   0.19870
C          C       0.20189   0.76092   0.59517  -0.10204
C          C       0.79354   0.23754   0.56227  -0.09957
C          C       0.37244   0.82106   0.85727  -0.15470
C          C       0.62983   0.18005   0.88471  -0.15353
C          C       0.16436   0.73815   0.67965  -0.09916
C          C       0.83186   0.26049   0.65681  -0.10019
C          C       0.35334   0.77821   0.88029  -0.10395
C          C       0.64903   0.22322   0.90521  -0.10389
C          C       0.14884   0.69583   0.71652  -0.12995
C          C       0.84776   0.30291   0.69866  -0.12796
C          C       0.46899   0.90932   0.71164   0.23642
C          C       0.53253   0.08988   0.71528   0.23623
C          C       0.48675   0.95555   0.70509  -0.03327
C          C       0.51498   0.04368   0.70603  -0.02929
C          C       0.53066   0.98646   0.70695   0.19375
C          C       0.47120   0.01289   0.70942   0.18974
C          C       0.60216   0.00345   0.77614  -0.18680
C          C       0.40376   0.99903   0.79891  -0.18435
C          C       0.96943   0.51158   0.74041  -0.23503
C          C       0.02914   0.48769   0.72292  -0.22802
C          C       0.47486   0.84679   0.66924   0.06280
C          C       0.52540   0.15144   0.66571   0.06203
N          N       0.45805   0.56831   0.31194  -0.34324
N          N       0.54491   0.43258   0.30296  -0.34466
N          N       0.11308   0.54790   0.32684  -0.34572
N          N       0.88760   0.45603   0.31273  -0.34688
N          N       0.31243   0.68717   0.36178  -0.32501
N          N       0.69040   0.31282   0.36589  -0.32516
N          N       0.43136   0.88617   0.26388  -0.34131
N          N       0.57117   0.11229   0.27597  -0.34529
N          N       0.45665   0.56847   0.81213  -0.34283
N          N       0.54109   0.42951   0.80910  -0.34307
N          N       0.11267   0.54568   0.82744  -0.34701
N          N       0.88752   0.45445   0.80901  -0.34504
N          N       0.31135   0.68756   0.87139  -0.32405
N          N       0.69071   0.31380   0.86886  -0.32515
N          N       0.43028   0.88681   0.77236  -0.34205
N          N       0.57150   0.11302   0.78851  -0.34175
O          O       0.41573   0.43869   0.19855  -0.19109
O          O       0.58873   0.56074   0.25827  -0.17180
O          O       0.02614   0.58774   0.25018  -0.17545
O          O       0.97400   0.41647   0.22494  -0.17216
O          O       0.56109   0.97486   0.16594  -0.19001
O          O       0.44299   0.02588   0.23366  -0.17305
O          O       0.41096   0.44040   0.74309  -0.17374
O          O       0.58501   0.55766   0.75048  -0.17317
O          O       0.02608   0.58514   0.76613  -0.17193
O          O       0.97328   0.41401   0.70824  -0.17585
O          O       0.55967   0.97294   0.71637  -0.17207
O          O       0.44241   0.02658   0.71827  -0.17790

