data_crystal

_audit_creation_method 'AiiDA-DDEC plugin'

_cell_length_a        37.28998
_cell_length_b        37.17046
_cell_length_c         8.11249

_cell_angle_alpha     87.85670
_cell_angle_beta     92.20397
_cell_angle_gamma     121.20533

_symmetry_space_group_name_Hall 'P 1'
_symmetry_space_group_name_H-M  'P 1'

loop_
_symmetry_equiv_pos_as_xyz
 'x,y,z'

loop_
_atom_site_label
_atom_site_type_symbol
_atom_site_fract_x
_atom_site_fract_y
_atom_site_fract_z
_atom_site_charge
H          H       0.40560   0.69742   0.18308   0.11199
H          H       0.58782   0.28913   0.24548   0.11785
H          H       0.42790   0.75871   0.36831   0.10776
H          H       0.56637   0.22405   0.37003   0.10758
H          H       0.46391   0.83508   0.32893   0.11401
H          H       0.53088   0.15002   0.30128   0.11086
H          H       0.35740   0.82116   0.04295   0.11896
H          H       0.64164   0.17277   0.05328   0.11970
H          H       0.32126   0.74380   0.08665   0.11847
H          H       0.67643   0.24852   0.11950   0.12050
H          H       0.42447   0.88468   0.03920   0.26162
H          H       0.57360   0.10781   0.02518   0.26305
H          H       0.48053   0.89872   0.32847   0.09061
H          H       0.52030   0.08879   0.31477   0.08623
H          H       0.29109   0.57921   0.27426   0.10814
H          H       0.70297   0.40728   0.31250   0.11768
H          H       0.31829   0.55326   0.12840   0.10869
H          H       0.66495   0.41630   0.07065   0.10716
H          H       0.35467   0.51548   0.08680   0.12722
H          H       0.62370   0.44840   0.97625   0.11044
H          H       0.47288   0.62789   0.19885   0.11730
H          H       0.52571   0.36645   0.30748   0.11544
H          H       0.43588   0.66496   0.24889   0.11145
H          H       0.56706   0.33367   0.40134   0.10503
H          H       0.47335   0.41241   0.07598   0.10763
H          H       0.50456   0.55380   0.23045   0.10320
H          H       0.45238   0.57384   0.44207   0.23740
H          H       0.52912   0.43329   0.58820   0.25189
H          H       0.40244   0.49082   0.23881   0.10540
H          H       0.56585   0.46364   0.28406   0.08969
H          H       0.24001   0.66673   0.20682   0.11690
H          H       0.75843   0.33187   0.17810   0.11531
H          H       0.16333   0.63279   0.23585   0.12352
H          H       0.83584   0.37562   0.16449   0.11156
H          H       0.56809   0.04832   0.06288   0.11182
H          H       0.43244   0.93960   0.30160   0.11102
H          H       0.15983   0.52508   0.46984   0.10800
H          H       0.83596   0.46606   0.48016   0.11381
H          H       0.23613   0.55862   0.43460   0.10323
H          H       0.75838   0.42186   0.49581   0.10076
H          H       0.09988   0.52358   0.39089   0.24976
H          H       0.89303   0.45821   0.17993   0.24523
H          H       0.10182   0.56912   0.09733   0.07130
H          H       0.90415   0.41687   0.02157   0.09214
H          H       0.95205   0.51969   0.25363   0.11193
H          H       0.04743   0.49357   0.61218   0.10568
H          H       0.41657   0.42899   0.06142   0.12098
H          H       0.56097   0.53822   0.23171   0.11634
H          H       0.54733   0.97373   0.06412   0.12165
H          H       0.45315   0.01467   0.30031   0.12376
H          H       0.02775   0.57488   0.28045   0.12346
H          H       0.97316   0.43728   0.57378   0.11555
H          H       0.41130   0.70902   0.73172   0.11754
H          H       0.59102   0.30076   0.70525   0.11207
H          H       0.43097   0.76979   0.88282   0.10712
H          H       0.56757   0.23622   0.85982   0.10794
H          H       0.46727   0.84561   0.83323   0.11031
H          H       0.53189   0.16079   0.80565   0.11604
H          H       0.36036   0.83016   0.54496   0.11794
H          H       0.64266   0.18085   0.56699   0.12031
H          H       0.32435   0.75291   0.59505   0.12045
H          H       0.67797   0.25699   0.62325   0.11765
H          H       0.42700   0.89509   0.54523   0.25898
H          H       0.57625   0.11786   0.53773   0.25814
H          H       0.48309   0.90900   0.83363   0.08617
H          H       0.51738   0.09811   0.80812   0.09164
H          H       0.29660   0.58939   0.78737   0.11566
H          H       0.70599   0.41776   0.79510   0.10769
H          H       0.33381   0.58315   0.55033   0.10486
H          H       0.67892   0.44276   0.62557   0.11015
H          H       0.37550   0.55321   0.46000   0.10883
H          H       0.64354   0.48172   0.55877   0.12592
H          H       0.47552   0.63295   0.79498   0.11313
H          H       0.52634   0.37432   0.71348   0.11299
H          H       0.43370   0.66361   0.88407   0.10626
H          H       0.56235   0.33611   0.78787   0.11205
H          H       0.49054   0.44095   0.67144   0.10172
H          H       0.52767   0.58949   0.61064   0.11157
H          H       0.46586   0.56553   0.05483   0.26238
H          H       0.54795   0.42972   0.95301   0.23626
H          H       0.43495   0.53485   0.77024   0.08773
H          H       0.59460   0.50394   0.73988   0.09658
H          H       0.23935   0.66954   0.68758   0.11749
H          H       0.75751   0.32918   0.76659   0.11515
H          H       0.16208   0.63123   0.71391   0.12102
H          H       0.83488   0.36554   0.77884   0.12381
H          H       0.56889   0.05830   0.56138   0.11174
H          H       0.43534   0.94925   0.81215   0.11312
H          H       0.16725   0.53353  -0.00267   0.10751
H          H       0.84086   0.47850   0.92713   0.11736
H          H       0.24393   0.57113   0.96462   0.10293
H          H       0.76352   0.44202   0.91449   0.10508
H          H       0.10489   0.52451   0.89302   0.24339
H          H       0.89891   0.46976   0.75257   0.25581
H          H       0.09933   0.57032   0.59186   0.07228
H          H       0.89844   0.42926   0.51714   0.08901
H          H       0.95319   0.51586   0.78088   0.10681
H          H       0.05267   0.48897   0.10351   0.10784
H          H       0.43599   0.45806   0.67072   0.12391
H          H       0.58396   0.57254   0.60219   0.12572
H          H       0.54881   0.98400   0.56205   0.12077
H          H       0.45452   0.02381   0.80637   0.12352
H          H       0.02665   0.57170   0.80884   0.12519
H          H       0.97864   0.43137   0.06901   0.12723
C          C       0.28905   0.63608   0.28540   0.21562
C          C       0.70666   0.35099   0.31861   0.21851
C          C       0.52654   0.98251   0.11622  -0.13169
C          C       0.47372   0.00563   0.24780  -0.12712
C          C       0.30911   0.61338   0.26444  -0.24857
C          C       0.68548   0.37311   0.30810  -0.23830
C          C       0.24359   0.61513   0.31573   0.01670
C          C       0.75299   0.37449   0.33286   0.02904
C          C       0.35216   0.56989   0.14746  -0.10051
C          C       0.63484   0.40587   0.12540  -0.11567
C          C       0.37282   0.54819   0.12282  -0.19241
C          C       0.61144   0.42371   0.07111  -0.17387
C          C       0.41662   0.56876   0.14088   0.21304
C          C       0.57185   0.40922   0.13599   0.19255
C          C       0.43888   0.61154   0.18259  -0.19648
C          C       0.55636   0.37727   0.25715  -0.16670
C          C       0.41782   0.63248   0.20957  -0.10361
C          C       0.57949   0.35892   0.30890  -0.12294
C          C       0.50542   0.89794   0.10703   0.21889
C          C       0.49201   0.08783   0.08869   0.21917
C          C       0.42199   0.50366   0.12719   0.06701
C          C       0.55698   0.46567   0.15416   0.06900
C          C       0.45665   0.49298   0.14056   0.05052
C          C       0.52105   0.47432   0.15095   0.05325
C          C       0.35098   0.69939   0.24259   0.22323
C          C       0.64476   0.28731   0.27960   0.21906
C          C       0.44817   0.45292   0.10045  -0.13387
C          C       0.52930   0.51394   0.19558  -0.12969
C          C       0.48001   0.44353   0.10688  -0.12781
C          C       0.49738   0.52301   0.19251  -0.13319
C          C       0.37220   0.74571   0.22797   0.00825
C          C       0.62398   0.24179   0.24865   0.00753
C          C       0.22217   0.63572   0.26490  -0.08016
C          C       0.77553   0.36113   0.24486  -0.09102
C          C       0.17909   0.61661   0.28204  -0.18099
C          C       0.81903   0.38592   0.23701  -0.17350
C          C       0.15604   0.57623   0.35429   0.20878
C          C       0.84088   0.42438   0.31817   0.19337
C          C       0.17730   0.55590   0.40947  -0.20225
C          C       0.81884   0.43662   0.41442  -0.16999
C          C       0.22041   0.57494   0.38896  -0.11523
C          C       0.77523   0.41193   0.42119  -0.11948
C          C       0.08953   0.56937   0.46049   0.06475
C          C       0.91171   0.43966   0.39333   0.07583
C          C       0.39300   0.48131   0.98818   0.21224
C          C       0.59355   0.50092   0.07145   0.22903
C          C       0.04267   0.53761   0.44556   0.04471
C          C       0.95766   0.47476   0.41078   0.04319
C          C       0.01556   0.54479   0.34584  -0.12454
C          C       0.98494   0.46741   0.50969  -0.13544
C          C       0.53817   0.02487   0.11456  -0.12323
C          C       0.46219   0.96349   0.24975  -0.12724
C          C       0.35189   0.63475   0.22663   0.11107
C          C       0.64203   0.35100   0.28101   0.11577
C          C       0.37294   0.67882   0.21808  -0.23990
C          C       0.62136   0.30717   0.27234  -0.23626
C          C       0.37383   0.61223   0.19342   0.04025
C          C       0.61890   0.37277   0.24239   0.05634
C          C       0.09933   0.61168   0.41222   0.23179
C          C       0.91032   0.40309   0.31941   0.22217
C          C       0.41233   0.77211   0.29568  -0.10199
C          C       0.58302   0.21326   0.29876  -0.09709
C          C       0.43279   0.81576   0.27415  -0.20614
C          C       0.56292   0.17063   0.26176  -0.21688
C          C       0.41331   0.83373   0.18136   0.21149
C          C       0.58397   0.15557   0.17397   0.21031
C          C       0.97310   0.51364   0.32963  -0.12229
C          C       0.02689   0.49885   0.52919  -0.12956
C          C       0.37262   0.80744   0.11602  -0.19202
C          C       0.62519   0.18407   0.12305  -0.19569
C          C       0.35231   0.76417   0.14051  -0.08687
C          C       0.64480   0.22639   0.16044  -0.09053
C          C       0.47649   0.90557   0.19776   0.06626
C          C       0.52338   0.08246   0.18601   0.07385
C          C       0.48872   0.95159   0.18442   0.04429
C          C       0.51194   0.03668   0.18090   0.04469
C          C       0.29280   0.64550   0.79656   0.21897
C          C       0.70869   0.36102   0.80866   0.21326
C          C       0.52820   0.99262   0.61704  -0.12925
C          C       0.47524   0.01512   0.75283  -0.12927
C          C       0.31398   0.62362   0.78341  -0.23977
C          C       0.68822   0.38369   0.78742  -0.24665
C          C       0.24700   0.62279   0.82085   0.01800
C          C       0.75479   0.38291   0.83401   0.02014
C          C       0.36440   0.59334   0.60725  -0.11326
C          C       0.64559   0.42770   0.64939  -0.10132
C          C       0.38805   0.57680   0.55521  -0.17081
C          C       0.62566   0.45001   0.61062  -0.18807
C          C       0.42832   0.59129   0.62219   0.19046
C          C       0.58225   0.43097   0.63131   0.21578
C          C       0.44422   0.62192   0.74347  -0.17480
C          C       0.55989   0.38941   0.69380  -0.20534
C          C       0.42082   0.63908   0.79266  -0.12298
C          C       0.58027   0.36766   0.73406  -0.10236
C          C       0.50777   0.90769   0.61262   0.22243
C          C       0.49327   0.09615   0.57317   0.21578
C          C       0.44293   0.53463   0.64104   0.07114
C          C       0.57687   0.49576   0.62028   0.06977
C          C       0.47814   0.52500   0.63884   0.05364
C          C       0.54180   0.50552   0.63143   0.05316
C          C       0.35442   0.70972   0.76325   0.21920
C          C       0.64633   0.29799   0.76558   0.22333
C          C       0.46845   0.48339   0.65671  -0.12977
C          C       0.55155   0.54736   0.61874  -0.12775
C          C       0.50000   0.47386   0.65453  -0.13537
C          C       0.52010   0.55707   0.62302  -0.12009
C          C       0.37525   0.75582   0.74079   0.00857
C          C       0.62523   0.25207   0.74429   0.00677
C          C       0.22323   0.63968   0.75520  -0.08501
C          C       0.77599   0.36191   0.80228  -0.08139
C          C       0.17987   0.61813   0.77059  -0.17542
C          C       0.81963   0.38253   0.80976  -0.18159
C          C       0.15917   0.57921   0.85545   0.20489
C          C       0.84327   0.42511   0.85017   0.20351
C          C       0.18282   0.56281   0.92547  -0.19688
C          C       0.82237   0.44597   0.88856  -0.17746
C          C       0.22611   0.58407   0.90670  -0.11633
C          C       0.77880   0.42521   0.88064  -0.11453
C          C       0.09136   0.56766   0.96639   0.06125
C          C       0.91469   0.43327   0.90104   0.07305
C          C       0.40508   0.50069   0.55839   0.23554
C          C       0.60742   0.52397   0.49687   0.22448
C          C       0.04496   0.53407   0.95460   0.05348
C          C       0.96048   0.46910   0.92108   0.04384
C          C       0.01627   0.54104   0.86626  -0.12295
C          C       0.98923   0.46201   0.01059  -0.13152
C          C       0.53930   0.03483   0.61520  -0.12909
C          C       0.46447   0.97321   0.75655  -0.12107
C          C       0.35734   0.64618   0.75974   0.11480
C          C       0.64510   0.36270   0.74997   0.11182
C          C       0.37790   0.69013   0.75515  -0.23864
C          C       0.62399   0.31876   0.74156  -0.23718
C          C       0.38069   0.62524   0.72402   0.05688
C          C       0.62360   0.38611   0.71168   0.03450
C          C       0.09875   0.60925   0.91921   0.23148
C          C       0.91214   0.40085   0.79241   0.21298
C          C       0.41549   0.78270   0.80646  -0.09603
C          C       0.58409   0.22426   0.79464  -0.10175
C          C       0.43603   0.82615   0.77978  -0.21297
C          C       0.56390   0.18118   0.76506  -0.20715
C          C       0.41630   0.84360   0.68527   0.20852
C          C       0.58489   0.16520   0.68246   0.21342
C          C       0.97439   0.50891   0.85046  -0.12439
C          C       0.03100   0.49442   0.02863  -0.12920
C          C       0.37571   0.81682   0.61965  -0.19547
C          C       0.62638   0.19296   0.63313  -0.19226
C          C       0.35548   0.77362   0.64780  -0.08779
C          C       0.64625   0.23555   0.66481  -0.08808
C          C       0.47908   0.91577   0.70276   0.07016
C          C       0.52346   0.09192   0.68360   0.06800
C          C       0.49097   0.96165   0.68869   0.04220
C          C       0.51297   0.04635   0.68310   0.04340
N          N       0.43995   0.54901   0.12491  -0.39264
N          N       0.54594   0.42569   0.07860  -0.40057
N          N       0.52714   0.89125   0.03028  -0.34327
N          N       0.46914   0.09289   0.00223  -0.34802
N          N       0.30971   0.67846   0.27307  -0.33258
N          N       0.68684   0.30894   0.30159  -0.33968
N          N       0.11141   0.55432   0.35721  -0.38773
N          N       0.88555   0.45263   0.30203  -0.41520
N          N       0.36839   0.46242   0.88406  -0.35079
N          N       0.62003   0.52550   0.98546  -0.36085
N          N       0.10601   0.64532   0.37776  -0.34014
N          N       0.90935   0.37621   0.24532  -0.36101
N          N       0.43258   0.87754   0.15178  -0.38531
N          N       0.56604   0.11251   0.13861  -0.38339
N          N       0.45431   0.57587   0.56814  -0.40703
N          N       0.56075   0.45159   0.58304  -0.38491
N          N       0.52836   0.89961   0.53526  -0.34186
N          N       0.46998   0.09928   0.48182  -0.34828
N          N       0.31258   0.68784   0.78260  -0.33664
N          N       0.68800   0.31876   0.79714  -0.33421
N          N       0.11436   0.55479   0.85843  -0.39385
N          N       0.88805   0.44991   0.85239  -0.41813
N          N       0.37732   0.47674   0.47423  -0.35514
N          N       0.63263   0.54657   0.40252  -0.34702
N          N       0.10343   0.64217   0.88524  -0.34150
N          N       0.90854   0.37439   0.70760  -0.34726
N          N       0.43522   0.88745   0.65653  -0.38395
N          N       0.56700   0.12212   0.64828  -0.38682

