data_crystal

_audit_creation_method 'AiiDA-DDEC plugin'

_cell_length_a        36.33041
_cell_length_b        36.51455
_cell_length_c         9.14016

_cell_angle_alpha     89.63320
_cell_angle_beta     90.11464
_cell_angle_gamma     120.00611

_symmetry_space_group_name_Hall 'P 1'
_symmetry_space_group_name_H-M  'P 1'

loop_
_symmetry_equiv_pos_as_xyz
 'x,y,z'

loop_
_atom_site_label
_atom_site_type_symbol
_atom_site_fract_x
_atom_site_fract_y
_atom_site_fract_z
_atom_site_charge
H          H       0.47848   0.63300   0.46563   0.12031
H          H       0.36887   0.84502   0.46539   0.12045
H          H       0.15658   0.52253   0.44192   0.12002
H          H       0.52439   0.36975   0.47023   0.11959
H          H       0.63053   0.15403   0.46083   0.12066
H          H       0.84593   0.47395   0.47348   0.12101
H          H       0.43201   0.66587   0.00462   0.10963
H          H       0.33232   0.76782   0.98796   0.10982
H          H       0.23173   0.56915   0.01339   0.10961
H          H       0.56554   0.33325   0.01145   0.10933
H          H       0.66444   0.23227   0.00725   0.11035
H          H       0.76652   0.43315   0.98846   0.10990
H          H       0.47975   0.42611   0.22512   0.11820
H          H       0.57551   0.05352   0.19722   0.11606
H          H       0.94734   0.52239   0.21000   0.11801
H          H       0.52583   0.57748   0.20419   0.11663
H          H       0.42310   0.94794   0.20700   0.11655
H          H       0.05354   0.47665   0.19243   0.11813
H          H       0.42876   0.40901   0.40748   0.10938
H          H       0.60284   0.02371   0.34530   0.11017
H          H       0.97874   0.57578   0.36804   0.11334
H          H       0.58198   0.60242   0.36184   0.11352
H          H       0.39342   0.97743   0.34197   0.10957
H          H       0.01993   0.42291   0.37558   0.11025
H          H       0.40944   0.38342   0.23475   0.09654
H          H       0.61538   0.02473   0.15521   0.09292
H          H       0.97578   0.59254   0.18549   0.09543
H          H       0.59507   0.61849   0.17447   0.09352
H          H       0.38447   0.97952   0.14969   0.09301
H          H       0.02694   0.40792   0.19563   0.09577
H          H       0.37446   0.39016   0.35530   0.11093
H          H       0.61728   0.98671   0.27511   0.10875
H          H       0.01536   0.62887   0.30958   0.11013
H          H       0.63424   0.61827   0.29324   0.10855
H          H       0.38198   0.01663   0.27086   0.10955
H          H       0.98524   0.37008   0.31125   0.10855
H          H       0.60321   0.50661   0.41659   0.09272
H          H       0.49588   0.10062   0.40109   0.09183
H          H       0.89506   0.38487   0.40081   0.09023
H          H       0.39508   0.49694   0.40580   0.09122
H          H       0.50907   0.90378   0.40011   0.09237
H          H       0.09988   0.60129   0.39233   0.09222
H          H       0.60074   0.53848   0.02754   0.09856
H          H       0.46171   0.06069   0.02020   0.09955
H          H       0.94109   0.40443   0.02020   0.09952
H          H       0.40345   0.46137   0.04439   0.09952
H          H       0.53583   0.94187   0.01489   0.09936
H          H       0.05898   0.59621   0.01598   0.09524
H          H       0.67442   0.56402   0.12533   0.09010
H          H       0.43554   0.10755   0.12159   0.08807
H          H       0.89434   0.33070   0.12217   0.09121
H          H       0.32995   0.43883   0.13759   0.08876
H          H       0.56334   0.89563   0.11616   0.08879
H          H       0.10601   0.66839   0.12617   0.08945
H          H       0.67148   0.57348   0.45339   0.09770
H          H       0.42829   0.10111   0.42835   0.09663
H          H       0.89956   0.32001   0.47101   0.09790
H          H       0.32576   0.43025   0.43145   0.09560
H          H       0.57471   0.89961   0.43684   0.09710
H          H       0.09867   0.66832   0.41581   0.09527
H          H       0.41350   0.70953   0.38367   0.10848
H          H       0.29266   0.70432   0.37982   0.10791
H          H       0.29793   0.58933   0.37296   0.10712
H          H       0.58778   0.29196   0.38925   0.10808
H          H       0.70727   0.29429   0.39084   0.10718
H          H       0.70493   0.41081   0.39793   0.10795
H          H       0.71763   0.53453   0.02516   0.07607
H          H       0.46407   0.18033   0.01942   0.07677
H          H       0.82187   0.28616   0.01624   0.07580
H          H       0.28793   0.46769   0.01710   0.07685
H          H       0.53596   0.82358   0.01717   0.07574
H          H       0.17779   0.71496   0.01755   0.07656
H          H       0.33908   0.57871   0.21600   0.11161
H          H       0.42392   0.76124   0.21615   0.11240
H          H       0.24108   0.66530   0.21563   0.11208
H          H       0.66623   0.42432   0.23779   0.11234
H          H       0.57594   0.24040   0.22240   0.11159
H          H       0.75982   0.33506   0.22846   0.11255
H          H       0.67599   0.51048   0.40219   0.07146
H          H       0.49285   0.16866   0.38685   0.07216
H          H       0.83059   0.31263   0.41003   0.07700
H          H       0.32373   0.49502   0.38286   0.07320
H          H       0.50943   0.83360   0.38227   0.07283
H          H       0.16790   0.67558   0.37750   0.07204
H          H       0.47471   0.63069   0.96013   0.12076
H          H       0.36669   0.84514   0.93754   0.11927
H          H       0.15435   0.52453   0.96373   0.12062
H          H       0.52213   0.36766   0.96858   0.12038
H          H       0.63113   0.15511   0.95743   0.11996
H          H       0.84388   0.47628   0.93421   0.12040
H          H       0.43454   0.66661   0.51132   0.10951
H          H       0.33502   0.76758   0.51119   0.10876
H          H       0.23393   0.56645   0.49473   0.11028
H          H       0.56645   0.33404   0.51845   0.10924
H          H       0.66434   0.23101   0.51306   0.10933
H          H       0.76832   0.43079   0.52234   0.10826
H          H       0.47425   0.42329   0.71400   0.11696
H          H       0.57678   0.05357   0.70988   0.11668
H          H       0.94542   0.51980   0.67972   0.12010
H          H       0.52050   0.57484   0.72147   0.11777
H          H       0.42489   0.94734   0.69186   0.11736
H          H       0.05207   0.47474   0.70502   0.11810
H          H       0.41721   0.40050   0.87891   0.11178
H          H       0.59735   0.02152   0.88110   0.10786
H          H       0.99149   0.57541   0.89879   0.10726
H          H       0.57347   0.59281   0.90304   0.10770
H          H       0.40479   0.98158   0.88061   0.10629
H          H       0.01747   0.42058   0.87887   0.11128
H          H       0.40427   0.38198   0.69417   0.09406
H          H       0.61906   0.02517   0.70195   0.09700
H          H       0.96754   0.58228   0.73718   0.09720
H          H       0.58915   0.61656   0.72496   0.09721
H          H       0.38324   0.97154   0.69934   0.09835
H          H       0.02471   0.40559   0.69913   0.09614
H          H       0.36525   0.38438   0.80664   0.10869
H          H       0.61475   0.98529   0.82724   0.10872
H          H       0.01495   0.62608   0.80823   0.10724
H          H       0.62688   0.61202   0.83933   0.10925
H          H       0.38435   0.01338   0.80337   0.10841
H          H       0.98277   0.36781   0.81375   0.11026
H          H       0.60609   0.50349   0.91201   0.09138
H          H       0.49555   0.10124   0.90111   0.09169
H          H       0.89971   0.39765   0.90508   0.09314
H          H       0.39891   0.49455   0.91579   0.09379
H          H       0.50168   0.90077   0.89990   0.09254
H          H       0.10002   0.60543   0.89427   0.09224
H          H       0.59518   0.53872   0.53852   0.10066
H          H       0.46229   0.05931   0.51786   0.10082
H          H       0.93911   0.39921   0.51395   0.10110
H          H       0.40108   0.46263   0.52485   0.09885
H          H       0.54162   0.94225   0.52695   0.10040
H          H       0.05773   0.59297   0.50594   0.10097
H          H       0.66792   0.56408   0.64523   0.08836
H          H       0.43482   0.10523   0.62122   0.08855
H          H       0.89482   0.33032   0.65765   0.08868
H          H       0.32725   0.43722   0.62330   0.08851
H          H       0.56497   0.89293   0.62816   0.08940
H          H       0.10215   0.66593   0.60894   0.08979
H          H       0.67586   0.56948   0.93217   0.09527
H          H       0.42918   0.10399   0.92871   0.09661
H          H       0.89902   0.32908   0.92917   0.09426
H          H       0.32859   0.42994   0.94650   0.09681
H          H       0.56941   0.90018   0.92297   0.09579
H          H       0.09992   0.67296   0.93512   0.09743
H          H       0.41130   0.70844   0.87201   0.10787
H          H       0.29131   0.70500   0.86902   0.10695
H          H       0.29477   0.58909   0.88315   0.10820
H          H       0.58625   0.29177   0.89028   0.10713
H          H       0.70566   0.29443   0.87294   0.10729
H          H       0.70315   0.41089   0.87613   0.10672
H          H       0.71414   0.53865   0.54167   0.07511
H          H       0.46200   0.17766   0.51819   0.07599
H          H       0.82258   0.27906   0.56402   0.07528
H          H       0.28371   0.46566   0.51617   0.07550
H          H       0.53772   0.82199   0.51743   0.07640
H          H       0.17494   0.71253   0.51655   0.07400
H          H       0.33455   0.57736   0.71629   0.11176
H          H       0.42471   0.76064   0.71312   0.11174
H          H       0.23869   0.66348   0.71153   0.11131
H          H       0.66292   0.42440   0.72577   0.11105
H          H       0.57309   0.23924   0.72496   0.11181
H          H       0.75838   0.33263   0.72100   0.11154
H          H       0.67688   0.50371   0.89673   0.07240
H          H       0.49480   0.17090   0.88884   0.07239
H          H       0.83150   0.32724   0.88929   0.06927
H          H       0.33027   0.49674   0.89106   0.06935
H          H       0.50566   0.83246   0.88268   0.07183
H          H       0.16742   0.67656   0.87976   0.07751
C          C       0.35854   0.64680   0.38087   0.07896
C          C       0.35556   0.71224   0.38276   0.08027
C          C       0.28972   0.64390   0.37751   0.07828
C          C       0.64359   0.35403   0.39656   0.07908
C          C       0.64486   0.28770   0.39105   0.08056
C          C       0.71163   0.35535   0.39552   0.08007
C          C       0.37895   0.69111   0.38460  -0.18609
C          C       0.31103   0.68824   0.38231  -0.18451
C          C       0.31391   0.62364   0.37889  -0.18460
C          C       0.62232   0.30967   0.39412  -0.18640
C          C       0.68945   0.31093   0.39451  -0.18571
C          C       0.68823   0.37641   0.39909  -0.18417
C          C       0.38351   0.62511   0.36549   0.06330
C          C       0.37720   0.75877   0.36642   0.06364
C          C       0.24311   0.61913   0.35747   0.06317
C          C       0.61958   0.37674   0.38057   0.06334
C          C       0.62260   0.24134   0.37034   0.06274
C          C       0.75840   0.37963   0.37796   0.06245
C          C       0.40446   0.51653   0.13420  -0.08104
C          C       0.48391   0.88806   0.12347  -0.08430
C          C       0.11360   0.59760   0.11534  -0.08327
C          C       0.60085   0.48572   0.13615  -0.08370
C          C       0.51498   0.11404   0.12352  -0.08346
C          C       0.88716   0.40207   0.12937  -0.08589
C          C       0.36875   0.59008   0.27520  -0.16257
C          C       0.41235   0.77925   0.27501  -0.16397
C          C       0.22275   0.63469   0.26899  -0.16101
C          C       0.63587   0.41272   0.29265  -0.16194
C          C       0.58744   0.22179   0.27884  -0.16202
C          C       0.77843   0.36467   0.28637  -0.16428
C          C       0.39281   0.56999   0.25173  -0.06462
C          C       0.43201   0.82321   0.24903  -0.06700
C          C       0.17877   0.61023   0.23948  -0.06491
C          C       0.61232   0.43317   0.26451  -0.06497
C          C       0.56761   0.17802   0.24997  -0.06632
C          C       0.82257   0.38874   0.25859  -0.06273
C          C       0.43366   0.58622   0.31753   0.19510
C          C       0.41572   0.84749   0.31539   0.19554
C          C       0.15449   0.56867   0.30015   0.19581
C          C       0.57101   0.41703   0.32665   0.19540
C          C       0.58399   0.15315   0.31246   0.19568
C          C       0.84735   0.42939   0.32384   0.19541
C          C       0.44807   0.62176   0.41123  -0.15620
C          C       0.38020   0.82615   0.41065  -0.15607
C          C       0.17566   0.55363   0.39252  -0.15573
C          C       0.55527   0.38089   0.41944  -0.15533
C          C       0.61939   0.17349   0.40826  -0.15639
C          C       0.82654   0.44374   0.41976  -0.15809
C          C       0.42364   0.64038   0.43528  -0.12683
C          C       0.36157   0.78319   0.43531  -0.12861
C          C       0.21853   0.57811   0.42073  -0.12718
C          C       0.57877   0.36131   0.44534  -0.12707
C          C       0.63794   0.21613   0.43661  -0.12759
C          C       0.78348   0.41963   0.44607  -0.12606
C          C       0.61564   0.51911   0.01837  -0.18967
C          C       0.48064   0.09495   0.00929  -0.18828
C          C       0.90663   0.38851   0.01148  -0.18783
C          C       0.38915   0.48103   0.02565  -0.18830
C          C       0.51738   0.90760   0.00651  -0.18955
C          C       0.09341   0.61260   0.00407  -0.18419
C          C       0.66413   0.54631   0.02243  -0.19132
C          C       0.45286   0.11548   0.01716  -0.19040
C          C       0.88676   0.34039   0.01755  -0.19237
C          C       0.34060   0.45461   0.03073  -0.19080
C          C       0.54590   0.88789   0.01220  -0.19156
C          C       0.11300   0.66054   0.01766  -0.19324
C          C       0.44383   0.53419   0.21222   0.19354
C          C       0.46688   0.90965   0.20431   0.19234
C          C       0.09200   0.55822   0.19266   0.19372
C          C       0.56153   0.46901   0.21442   0.19203
C          C       0.53226   0.09185   0.20070   0.19377
C          C       0.90917   0.44066   0.20944   0.19268
C          C       0.68321   0.51781   0.00617   0.02689
C          C       0.48108   0.16307  -0.00068   0.02637
C          C       0.83899   0.32052  -0.00098   0.02709
C          C       0.32250   0.48353   0.00232   0.02754
C          C       0.51851   0.84030   0.99411   0.02626
C          C       0.16066   0.68100   0.99341   0.02471
C          C       0.47231   0.51575   0.20715  -0.01887
C          C       0.48515   0.95641   0.19670  -0.02165
C          C       0.04495   0.52992   0.18924  -0.02271
C          C       0.53321   0.48765   0.20695  -0.02432
C          C       0.51352   0.04504   0.19407  -0.02270
C          C       0.95599   0.46932   0.19851  -0.02102
C          C       0.45934   0.47244   0.22312   0.18296
C          C       0.52892   0.98679   0.20253   0.18312
C          C       0.01444   0.54294   0.20403   0.18034
C          C       0.54635   0.53119   0.21112   0.18422
C          C       0.46982   0.01471   0.20563   0.18416
C          C       0.98661   0.45630   0.20299   0.18335
C          C       0.48930   0.45932   0.21578  -0.23733
C          C       0.54207   0.02975   0.19517  -0.24030
C          C       0.97122   0.51299   0.20128  -0.24348
C          C       0.51624   0.54419   0.20396  -0.24517
C          C       0.45654   0.97168   0.20057  -0.24301
C          C       0.02967   0.48621   0.19157  -0.23941
C          C       0.40727   0.40447   0.31562  -0.18441
C          C       0.60061   0.00409   0.25102  -0.18183
C          C       0.99744   0.59577   0.27530  -0.18353
C          C       0.60030   0.60207   0.26667  -0.18488
C          C       0.39803   0.99859   0.24891  -0.18301
C          C       0.00336   0.40353   0.27964  -0.18293
C          C       0.37884   0.53417   0.15939   0.18366
C          C       0.46718   0.84518   0.15231   0.18515
C          C       0.15666   0.62380   0.14440   0.18438
C          C       0.62659   0.46851   0.16787   0.18184
C          C       0.53203   0.15677   0.15483   0.18436
C          C       0.84425   0.37564   0.16067   0.18300
C          C       0.35585   0.64620   0.87876   0.07959
C          C       0.35398   0.71222   0.87283   0.07741
C          C       0.28765   0.64428   0.87920   0.07837
C          C       0.64191   0.35404   0.88457   0.07783
C          C       0.64344   0.28783   0.88354   0.07849
C          C       0.71002   0.35555   0.87675   0.07815
C          C       0.37678   0.69052   0.87651  -0.18443
C          C       0.30941   0.68867   0.87543  -0.18532
C          C       0.31127   0.62348   0.88299  -0.18456
C          C       0.62081   0.30967   0.88860  -0.18412
C          C       0.68797   0.31115   0.87953  -0.18395
C          C       0.68654   0.37652   0.88087  -0.18452
C          C       0.38016   0.62395   0.86256   0.06299
C          C       0.37615   0.75863   0.85316   0.06419
C          C       0.24092   0.61950   0.86393   0.06436
C          C       0.61751   0.37639   0.87060   0.06381
C          C       0.62126   0.24134   0.86764   0.06465
C          C       0.75667   0.37970   0.85679   0.06298
C          C       0.40006   0.51527   0.62812  -0.08425
C          C       0.48655   0.88788   0.61929  -0.08324
C          C       0.11165   0.59555   0.61615  -0.08134
C          C       0.59608   0.48517   0.63753  -0.08207
C          C       0.51470   0.11299   0.62369  -0.08036
C          C       0.88536   0.39830   0.61928  -0.08259
C          C       0.36452   0.58858   0.77343  -0.16268
C          C       0.41247   0.77885   0.76671  -0.16153
C          C       0.22051   0.63384   0.77081  -0.16241
C          C       0.63285   0.41238   0.78305  -0.16272
C          C       0.58550   0.22111   0.77917  -0.16320
C          C       0.77678   0.36339   0.77201  -0.16089
C          C       0.38823   0.56823   0.74830  -0.06590
C          C       0.43258   0.82277   0.73903  -0.06517
C          C       0.17647   0.60923   0.74384  -0.06772
C          C       0.60866   0.43238   0.75860  -0.06455
C          C       0.56632   0.17741   0.75021  -0.06767
C          C       0.82079   0.38722   0.74273  -0.06564
C          C       0.42904   0.58408   0.81421   0.19640
C          C       0.41539   0.84708   0.79872   0.19579
C          C       0.15212   0.56846   0.81029   0.19491
C          C       0.56750   0.41548   0.82300   0.19656
C          C       0.58358   0.15323   0.81202   0.19589
C          C       0.84537   0.42920   0.79786   0.19824
C          C       0.44423   0.61986   0.90679  -0.15671
C          C       0.37871   0.82606   0.88898  -0.15469
C          C       0.17332   0.55475   0.90829  -0.15573
C          C       0.55281   0.37938   0.91553  -0.15523
C          C       0.61934   0.17416   0.90593  -0.15541
C          C       0.82457   0.44497   0.88766  -0.15692
C          C       0.42048   0.63917   0.93047  -0.12710
C          C       0.35981   0.78323   0.91584  -0.12844
C          C       0.21629   0.57958   0.93477  -0.12856
C          C       0.57706   0.36051   0.93867  -0.12787
C          C       0.63758   0.21685   0.93287  -0.12865
C          C       0.78168   0.42090   0.91673  -0.12699
C          C       0.61110   0.52035   0.52622  -0.18700
C          C       0.48064   0.09363   0.50877  -0.18918
C          C       0.90452   0.38148   0.51189  -0.18562
C          C       0.38578   0.48160   0.51329  -0.18924
C          C       0.52242   0.90822   0.51051  -0.18693
C          C       0.09221   0.60936   0.49861  -0.19070
C          C       0.65941   0.54857   0.53796  -0.19143
C          C       0.45203   0.11322   0.51657  -0.19002
C          C       0.88660   0.33437   0.54521  -0.19259
C          C       0.33735   0.45417   0.51822  -0.19029
C          C       0.54953   0.88697   0.52051  -0.19133
C          C       0.11102   0.65728   0.50543  -0.19099
C          C       0.43885   0.53192   0.70888   0.19186
C          C       0.46844   0.90939   0.69444   0.19426
C          C       0.09001   0.55663   0.69611   0.19101
C          C       0.55668   0.46715   0.71579   0.19224
C          C       0.53260   0.09138   0.70111   0.19203
C          C       0.90730   0.43846   0.68977   0.19318
C          C       0.68007   0.52168   0.51547   0.03027
C          C       0.47943   0.16082   0.49774   0.02716
C          C       0.83869   0.31204   0.52554   0.02747
C          C       0.31804   0.48233   0.49502   0.02638
C          C       0.52127   0.83977   0.49538   0.02789
C          C       0.15903   0.67878   0.48945   0.02907
C          C       0.46714   0.51329   0.70565  -0.02373
C          C       0.48703   0.95620   0.69023  -0.02303
C          C       0.04320   0.52772   0.68666  -0.01754
C          C       0.52781   0.48511   0.70950  -0.02029
C          C       0.51472   0.04473   0.69403  -0.02048
C          C       0.95425   0.46677   0.68191  -0.02506
C          C       0.45384   0.46976   0.71433   0.18313
C          C       0.53049   0.98669   0.70730   0.18422
C          C       0.01241   0.54050   0.68875   0.18110
C          C       0.54088   0.52845   0.72228   0.18424
C          C       0.47108   0.01404   0.70111   0.18432
C          C       0.98492   0.45398   0.69839   0.18526
C          C       0.48384   0.45659   0.70942  -0.24289
C          C       0.54349   0.02966   0.70088  -0.24233
C          C       0.96940   0.51039   0.67989  -0.22958
C          C       0.51101   0.54166   0.71363  -0.23750
C          C       0.45830   0.97126   0.69087  -0.23730
C          C       0.02811   0.48401   0.69392  -0.24430
C          C       0.39923   0.39981   0.78087  -0.18365
C          C       0.59972   0.00326   0.78987  -0.18247
C          C       0.99791   0.59176   0.79227  -0.18244
C          C       0.59339   0.59678   0.80698  -0.18204
C          C       0.40139   0.99639   0.78006  -0.18381
C          C       0.00105   0.40129   0.78257  -0.18387
C          C       0.37442   0.53289   0.65355   0.18340
C          C       0.46888   0.84476   0.64670   0.18437
C          C       0.15452   0.62217   0.64589   0.18355
C          C       0.62236   0.46834   0.66520   0.18396
C          C       0.53097   0.15564   0.65444   0.18310
C          C       0.84260   0.37228   0.65347   0.18425
N          N       0.45831   0.56823   0.29815  -0.37152
N          N       0.43347   0.88998   0.29462  -0.37038
N          N       0.11195   0.54370   0.27804  -0.37089
N          N       0.54682   0.43535   0.30376  -0.36904
N          N       0.56611   0.11086   0.28902  -0.37072
N          N       0.88993   0.45421   0.30132  -0.36908
N          N       0.45326   0.56569   0.79592  -0.36966
N          N       0.43344   0.88951   0.77744  -0.37033
N          N       0.10964   0.54314   0.78761  -0.37078
N          N       0.54255   0.43312   0.80296  -0.37185
N          N       0.56646   0.11103   0.78900  -0.37045
N          N       0.88783   0.45375   0.77316  -0.37182
O          O       0.66636   0.48312   0.11147  -0.19676
O          O       0.51635   0.18133   0.10222  -0.19825
O          O       0.81996   0.33619   0.10352  -0.19764
O          O       0.33899   0.51889   0.10311  -0.19657
O          O       0.48236   0.82101   0.09381  -0.19735
O          O       0.18062   0.66365   0.08816  -0.19783
O          O       0.41685   0.44426   0.25220  -0.16081
O          O       0.55751   0.97256   0.22245  -0.15662
O          O       0.02869   0.58533   0.22911  -0.15768
O          O       0.58922   0.55975   0.22984  -0.15812
O          O       0.44188   0.02944   0.22973  -0.15437
O          O       0.97258   0.41372   0.22509  -0.16301
O          O       0.66224   0.48415   0.60853  -0.19756
O          O       0.51490   0.17966   0.59973  -0.19789
O          O       0.81861   0.33146   0.60769  -0.19730
O          O       0.33519   0.51847   0.59310  -0.19607
O          O       0.48439   0.82043   0.59182  -0.19841
O          O       0.17859   0.66155   0.58632  -0.19769
O          O       0.41086   0.44166   0.73388  -0.15996
O          O       0.55849   0.97238   0.73917  -0.15739
O          O       0.02559   0.58317   0.70556  -0.17403
O          O       0.58345   0.55656   0.74888  -0.16002
O          O       0.44214   0.02760   0.72552  -0.15997
O          O       0.97054   0.41161   0.72637  -0.16017

