data_crystal

_audit_creation_method 'AiiDA-DDEC plugin'

_cell_length_a        36.33270
_cell_length_b        36.72412
_cell_length_c         8.05127

_cell_angle_alpha     89.30969
_cell_angle_beta     90.68193
_cell_angle_gamma     120.26790

_symmetry_space_group_name_Hall 'P 1'
_symmetry_space_group_name_H-M  'P 1'

loop_
_symmetry_equiv_pos_as_xyz
 'x,y,z'

loop_
_atom_site_label
_atom_site_type_symbol
_atom_site_fract_x
_atom_site_fract_y
_atom_site_fract_z
_atom_site_charge
H          H       0.31893   0.76047   0.39813   0.11040
H          H       0.68434   0.24068   0.38554   0.10727
H          H       0.52225   0.90976   0.06417   0.11310
H          H       0.47960   0.08858   0.06659   0.11377
H          H       0.45282   0.77802   0.46396   0.09720
H          H       0.53988   0.22249   0.44696   0.09799
H          H       0.50249   0.75258   0.39550   0.09767
H          H       0.49217   0.25209   0.40976   0.09767
H          H       0.57969   0.78795  -0.00355   0.10086
H          H       0.42147   0.21199   0.01874   0.10089
H          H       0.60470   0.85209   0.17039   0.10181
H          H       0.39722   0.14651   0.18799   0.10226
H          H       0.41369   0.71214   0.33338   0.11325
H          H       0.58726   0.28728   0.32312   0.11349
H          H       0.55568   0.87804   0.23607   0.10633
H          H       0.44607   0.11898   0.24059   0.10625
H          H       0.33572   0.57397   0.24587   0.09998
H          H       0.66522   0.42555   0.25634   0.10032
H          H       0.48675   0.64420   0.43152   0.12430
H          H       0.51375   0.35404   0.42863   0.12346
H          H       0.44379   0.67874   0.47732   0.10406
H          H       0.55660   0.31892   0.47413   0.10330
H          H       0.47146   0.42312   0.17750   0.11043
H          H       0.53023   0.57699   0.23854   0.10826
H          H       0.38914   0.48076   0.11687   0.11360
H          H       0.61145   0.51916   0.11786   0.11509
H          H       0.30064   0.59223   0.40764   0.11074
H          H       0.69917   0.40621   0.42418   0.11192
H          H       0.31925   0.54296   0.00821   0.09626
H          H       0.68212   0.45620   0.02553   0.09872
H          H       0.24043   0.67210   0.28358   0.10662
H          H       0.76088   0.33028   0.27625   0.10602
H          H       0.24119   0.49413   0.45837   0.10164
H          H       0.75762   0.50328   0.47245   0.10159
H          H       0.20562   0.42387   0.10121   0.10259
H          H       0.79517   0.57604   0.11111   0.10337
H          H       0.16255   0.52285   0.47627   0.12251
H          H       0.83740   0.47866   0.47025   0.12112
H          H       0.24870   0.40026   0.26423   0.10312
H          H       0.75186   0.59991   0.26439   0.10161
H          H       0.24102   0.56621   0.51102   0.09897
H          H       0.75976   0.43316   0.51777   0.09823
H          H       0.32612   0.44874   0.30517   0.10521
H          H       0.67457   0.55132   0.30323   0.10523
H          H       0.57993   0.04869   0.15755   0.10896
H          H       0.42362   0.95063   0.14959   0.11048
H          H       0.08898   0.61590   0.17160   0.11595
H          H       0.91113   0.39152   0.13867   0.11270
H          H       0.22254   0.68576   0.04749   0.10899
H          H       0.77612   0.31587   0.04313   0.10828
H          H       0.24740   0.76015   0.97778   0.10297
H          H       0.75082   0.24062  -0.00038   0.10504
H          H       0.20899   0.79514   0.08525   0.09936
H          H       0.79244   0.20863   0.11176   0.09682
H          H       0.14581   0.75469   0.26759   0.10000
H          H       0.85985   0.25332   0.26851   0.09978
H          H       0.12127   0.68019   0.33860   0.10248
H          H       0.88458   0.32880   0.31520   0.10212
H          H       0.94842   0.52778   0.29195   0.10692
H          H       0.05172   0.47967   0.19324   0.11142
H          H       0.42890   0.76271   0.19780   0.09539
H          H       0.57037   0.23515   0.20209   0.09474
H          H       0.42304   0.45213   0.17637   0.09918
H          H       0.57879   0.54790   0.23782   0.10000
H          H       0.55097   0.97145   0.15727   0.09866
H          H       0.45242   0.02766   0.14692   0.09887
H          H       0.35252   0.83814   0.34155   0.12350
H          H       0.65200   0.16321   0.33179   0.12175
H          H       0.02623   0.57912   0.30308   0.10068
H          H       0.97438   0.42907   0.17453   0.10094
H          H       0.31570   0.75912   0.91328   0.10906
H          H       0.68108   0.23905   0.87601   0.10939
H          H       0.51679   0.91012   0.56763   0.11353
H          H       0.47563   0.08921   0.55551   0.11244
H          H       0.45635   0.77697   0.95490   0.09666
H          H       0.54305   0.22058   0.95351   0.09866
H          H       0.50501   0.75046   0.88962   0.09739
H          H       0.49459   0.24890   0.90157   0.09706
H          H       0.57758   0.79214   0.49356   0.10040
H          H       0.41988   0.21562   0.53509   0.09983
H          H       0.60256   0.85703   0.66401   0.10261
H          H       0.39582   0.14915   0.69700   0.10197
H          H       0.41177   0.71223   0.83245   0.11320
H          H       0.58582   0.28790   0.81894   0.11370
H          H       0.55221   0.88112   0.73547   0.10605
H          H       0.44396   0.12025   0.73498   0.10510
H          H       0.33412   0.57328   0.75285   0.10184
H          H       0.66643   0.42804   0.75714   0.09938
H          H       0.48741   0.64667   0.91002   0.12435
H          H       0.51503   0.35782   0.92762   0.12360
H          H       0.44401   0.68027   0.96531   0.10434
H          H       0.55611   0.32062   0.96307   0.10393
H          H       0.47436   0.42628   0.72600   0.10864
H          H       0.52962   0.58014   0.68776   0.10891
H          H       0.38858   0.48123   0.61284   0.11547
H          H       0.61655   0.52594   0.64774   0.11428
H          H       0.30030   0.59168   0.92038   0.11095
H          H       0.69994   0.40650   0.90274   0.11124
H          H       0.31853   0.54288   0.50497   0.09675
H          H       0.68002   0.45864   0.52026   0.09821
H          H       0.23860   0.66870   0.79043   0.10586
H          H       0.75915   0.32718   0.76660   0.10574
H          H       0.24147   0.49534   0.97095   0.10307
H          H       0.75989   0.50380   0.99364   0.10335
H          H       0.20527   0.42292   0.58839   0.10343
H          H       0.79797   0.57462   0.59757   0.10245
H          H       0.16224   0.52026   0.99041   0.12166
H          H       0.83831   0.47437   0.97226   0.12262
H          H       0.24760   0.40048   0.76381   0.10248
H          H       0.75977   0.60087   0.77142   0.10260
H          H       0.24029   0.56525   0.03501   0.09827
H          H       0.76008   0.43122   0.00545   0.09885
H          H       0.32477   0.44932   0.80865   0.10499
H          H       0.68276   0.55522   0.82523   0.10519
H          H       0.57460   0.04785   0.65730   0.11003
H          H       0.41803   0.95057   0.65040   0.10986
H          H       0.08841   0.60868   0.64802   0.11467
H          H       0.91028   0.38338   0.65549   0.11430
H          H       0.22357   0.68267   0.55460   0.10806
H          H       0.77664   0.31481   0.53498   0.10769
H          H       0.24876   0.75754   0.49550   0.10522
H          H       0.74738   0.23910   0.48140   0.10256
H          H       0.20816   0.79075   0.59693   0.09814
H          H       0.78365   0.20207   0.59626   0.09837
H          H       0.14166   0.74758   0.75978   0.10052
H          H       0.85052   0.24232   0.76300   0.09920
H          H       0.11690   0.67259   0.82116   0.10239
H          H       0.87839   0.31768   0.82383   0.10311
H          H       0.94805   0.52062   0.77416   0.10792
H          H       0.05237   0.47245   0.71197   0.10938
H          H       0.42595   0.76323   0.70573   0.09506
H          H       0.56831   0.23582   0.69100   0.09401
H          H       0.42407   0.45324   0.71153   0.09985
H          H       0.57986   0.55329   0.69466   0.09966
H          H       0.54524   0.97069   0.66192   0.09883
H          H       0.44743   0.02778   0.64173   0.09828
H          H       0.34807   0.83662   0.85594   0.12258
H          H       0.64733   0.16144   0.82399   0.12288
H          H       0.02563   0.57278   0.77147   0.10141
H          H       0.97501   0.42040   0.71160   0.09937
C          C       0.36100   0.64951   0.37263   0.11637
C          C       0.63950   0.34915   0.37605   0.11575
C          C       0.37951   0.69305   0.35090  -0.23385
C          C       0.62131   0.30605   0.34675  -0.23354
C          C       0.49080   0.89036   0.11750  -0.23007
C          C       0.51140   0.10824   0.11772  -0.23170
C          C       0.38664   0.62875   0.35966   0.05870
C          C       0.61386   0.36993   0.36313   0.06094
C          C       0.50249   0.82968   0.09835   0.06762
C          C       0.49820   0.16805   0.10104   0.06703
C          C       0.36865   0.58923   0.28746  -0.17442
C          C       0.63212   0.41005   0.29404  -0.17600
C          C       0.48862   0.79299   0.00432  -0.13575
C          C       0.51140   0.20505   0.00737  -0.13514
C          C       0.39210   0.56868   0.26189  -0.00241
C          C       0.60867   0.43070   0.26614  -0.00338
C          C       0.51334   0.78042   0.47230  -0.08889
C          C       0.48153   0.22328   0.48191  -0.08845
C          C       0.43620   0.58977   0.31084   0.19795
C          C       0.56445   0.40923   0.31136   0.19870
C          C       0.55820   0.79943   0.02603  -0.10018
C          C       0.44273   0.19968   0.04216  -0.10098
C          C       0.45385   0.62972   0.38900  -0.15030
C          C       0.54666   0.36877   0.38794  -0.15037
C          C       0.57235   0.83567   0.12116  -0.09619
C          C       0.42903   0.16275   0.13506  -0.09163
C          C       0.42992   0.64870   0.41304  -0.12321
C          C       0.57051   0.34953   0.41256  -0.12622
C          C       0.54483   0.85059   0.15721  -0.13080
C          C       0.45649   0.14709   0.16421  -0.13424
C          C       0.44507   0.53495   0.22253   0.21902
C          C       0.55598   0.46466   0.22278   0.22003
C          C       0.47334   0.51701   0.20781   0.03856
C          C       0.52824   0.48318   0.20758   0.04182
C          C       0.45718   0.47350   0.18762  -0.12659
C          C       0.54468   0.52688   0.22098  -0.12688
C          C       0.48405   0.45683   0.18876  -0.10405
C          C       0.51771   0.54344   0.22219  -0.10054
C          C       0.29289   0.64664   0.38733   0.21866
C          C       0.70798   0.35293   0.39017   0.21805
C          C       0.37434   0.52720   0.19424   0.06645
C          C       0.62657   0.47248   0.19851   0.06746
C          C       0.31674   0.62625   0.39284  -0.23489
C          C       0.68358   0.37254   0.40217  -0.23216
C          C       0.24581   0.62186   0.39071   0.02697
C          C       0.75505   0.37879   0.39053   0.02701
C          C       0.22280   0.63940   0.32396  -0.15129
C          C       0.77827   0.36274   0.31780  -0.15432
C          C       0.40153   0.51154   0.17322  -0.23001
C          C       0.59943   0.48830   0.17543  -0.23111
C          C       0.17803   0.61565   0.30519  -0.00719
C          C       0.82264   0.38781   0.29265  -0.00332
C          C       0.15615   0.57202   0.35535   0.20120
C          C       0.84390   0.43113   0.34331   0.19951
C          C       0.32814   0.49948   0.16094   0.06311
C          C       0.67274   0.50019   0.16736   0.06121
C          C       0.18002   0.55527   0.43155  -0.15468
C          C       0.82003   0.44636   0.42609  -0.15508
C          C       0.30355   0.51216   0.06796  -0.13362
C          C       0.69758   0.48725   0.08161  -0.13360
C          C       0.22354   0.57952   0.44994  -0.12414
C          C       0.77696   0.42092   0.45039  -0.12483
C          C       0.25981   0.48511   0.04574  -0.08361
C          C       0.74130   0.51433   0.06183  -0.08374
C          C       0.23979   0.44475   0.11652  -0.09858
C          C       0.76108   0.55505   0.12667  -0.09660
C          C       0.09062   0.56163   0.27125   0.22076
C          C       0.90941   0.44448   0.24873   0.22088
C          C       0.26395   0.43139   0.20672  -0.09133
C          C       0.73676   0.56856   0.21076  -0.09079
C          C       0.04436   0.53259   0.25088   0.04039
C          C       0.95566   0.47484   0.23531   0.03907
C          C       0.30764   0.45849   0.22890  -0.13392
C          C       0.69310   0.54135   0.23155  -0.13149
C          C       0.01490   0.54627   0.27337  -0.13118
C          C       0.98528   0.46184   0.20309  -0.12367
C          C       0.15259   0.63239   0.24040   0.07331
C          C       0.84846   0.37290   0.22053   0.06915
C          C       0.10915   0.60473   0.22508  -0.23499
C          C       0.89129   0.40186   0.19791  -0.22815
C          C       0.54576   0.02697   0.15244  -0.10247
C          C       0.45780   0.97234   0.14795  -0.10208
C          C       0.16974   0.67740   0.19680   0.06065
C          C       0.83219   0.32787   0.18325   0.06229
C          C       0.20595   0.70083   0.09784  -0.12464
C          C       0.79420   0.30225   0.09556  -0.12473
C          C       0.35369   0.71145   0.34275   0.21754
C          C       0.64747   0.28809   0.33878   0.21786
C          C       0.21990   0.74290   0.05794  -0.08027
C          C       0.78011   0.25969   0.06963  -0.07953
C          C       0.19823   0.76246   0.11751  -0.10231
C          C       0.80359   0.24184   0.13148  -0.09788
C          C       0.37248   0.75686   0.30484   0.03266
C          C       0.62903   0.24283   0.29994   0.03607
C          C       0.16235   0.73960   0.21682  -0.09881
C          C       0.84160   0.26698   0.21776  -0.09533
C          C       0.41230   0.77911   0.23159  -0.17195
C          C       0.58840   0.21971   0.23197  -0.17607
C          C       0.14830   0.69755   0.25635  -0.13419
C          C       0.85574   0.30954   0.24320  -0.13491
C          C       0.43242   0.82282   0.19981  -0.00335
C          C       0.56928   0.17619   0.19906  -0.00273
C          C       0.41013   0.84450   0.24165   0.20095
C          C       0.59284   0.15527   0.23686   0.20242
C          C       0.36866   0.82095   0.31118  -0.15098
C          C       0.63479   0.17965   0.30312  -0.15310
C          C       0.35034   0.77843   0.34272  -0.10181
C          C       0.65244   0.22207   0.33348  -0.10133
C          C       0.46657   0.90927   0.16313   0.21725
C          C       0.53662   0.08998   0.16149   0.21909
C          C       0.48491   0.95543   0.15173   0.03967
C          C       0.51862   0.04388   0.15093   0.04021
C          C       0.97134   0.51780   0.26739  -0.10418
C          C       0.02888   0.49005   0.21295  -0.10434
C          C       0.52919   0.98361   0.15191  -0.12981
C          C       0.47434   0.01567   0.14668  -0.12497
C          C       0.47477   0.84743   0.13597   0.06430
C          C       0.52668   0.15089   0.13661   0.06424
C          C       0.35999   0.64935   0.87809   0.11470
C          C       0.63915   0.35002   0.86325   0.11450
C          C       0.37785   0.69283   0.85579  -0.23415
C          C       0.62011   0.30664   0.83665  -0.23413
C          C       0.48573   0.89057   0.62359  -0.23037
C          C       0.50743   0.10863   0.60714  -0.23334
C          C       0.38578   0.62892   0.85941   0.06094
C          C       0.61427   0.37179   0.85683   0.06154
C          C       0.49884   0.83118   0.60437   0.06639
C          C       0.49537   0.16934   0.59371   0.06734
C          C       0.36745   0.58909   0.78953  -0.17430
C          C       0.63333   0.41267   0.79444  -0.17591
C          C       0.48524   0.79440   0.51170  -0.13712
C          C       0.50854   0.20683   0.50336  -0.13278
C          C       0.39113   0.56894   0.75965  -0.00404
C          C       0.61091   0.43457   0.77338  -0.00237
C          C       0.51616   0.77813   0.96754  -0.08797
C          C       0.48399   0.22071   0.97786  -0.08808
C          C       0.43570   0.59088   0.80151   0.19822
C          C       0.56673   0.41352   0.81811   0.19869
C          C       0.55570   0.80289   0.52647  -0.09902
C          C       0.44078   0.20261   0.55093  -0.10191
C          C       0.45385   0.63130   0.87576  -0.14931
C          C       0.54803   0.37232   0.88843  -0.14928
C          C       0.56973   0.83942   0.61988  -0.09510
C          C       0.42709   0.16509   0.63955  -0.09132
C          C       0.42967   0.64975   0.90468  -0.12528
C          C       0.57091   0.35189   0.90656  -0.12430
C          C       0.54156   0.85336   0.65870  -0.13093
C          C       0.45409   0.14863   0.66069  -0.13085
C          C       0.44460   0.53612   0.71389   0.22009
C          C       0.55920   0.47006   0.73602   0.21961
C          C       0.47350   0.51892   0.69980   0.03976
C          C       0.53050   0.48745   0.71337   0.03862
C          C       0.45819   0.47530   0.70609  -0.12516
C          C       0.54576   0.53100   0.69817  -0.12769
C          C       0.48613   0.45989   0.71422  -0.10176
C          C       0.51782   0.54645   0.69339  -0.10166
C          C       0.29171   0.64554   0.90275   0.21962
C          C       0.70708   0.35212   0.87261   0.21843
C          C       0.37334   0.52738   0.69274   0.06800
C          C       0.62967   0.47714   0.71338   0.06759
C          C       0.31603   0.62568   0.90513  -0.23408
C          C       0.68353   0.37267   0.88362  -0.23376
C          C       0.24470   0.61978   0.90534   0.02884
C          C       0.75425   0.37666   0.87685   0.02663
C          C       0.22135   0.63614   0.83221  -0.15512
C          C       0.77706   0.35953   0.80888  -0.15191
C          C       0.40075   0.51201   0.66909  -0.23141
C          C       0.60327   0.49403   0.69623  -0.22933
C          C       0.17695   0.61132   0.80626  -0.00470
C          C       0.82184   0.38314   0.79127  -0.00508
C          C       0.15565   0.56785   0.85772   0.20009
C          C       0.84406   0.42630   0.84463   0.20072
C          C       0.32709   0.49959   0.66008   0.06384
C          C       0.67580   0.50355   0.67704   0.06208
C          C       0.17960   0.55243   0.94301  -0.15536
C          C       0.82054   0.44251   0.92360  -0.15450
C          C       0.30272   0.51199   0.56401  -0.13467
C          C       0.69771   0.48931   0.57896  -0.13366
C          C       0.22288   0.57758   0.96635  -0.12601
C          C       0.77703   0.41842   0.94008  -0.12477
C          C       0.25924   0.48448   0.53782  -0.08272
C          C       0.74136   0.51467   0.55074  -0.08347
C          C       0.23917   0.44417   0.60893  -0.09969
C          C       0.76394   0.55497   0.61941  -0.09991
C          C       0.09043   0.55564   0.76034   0.22597
C          C       0.90953   0.43732   0.75957   0.21951
C          C       0.26296   0.43146   0.70518  -0.09123
C          C       0.74252   0.56980   0.71524  -0.09204
C          C       0.04431   0.52586   0.74235   0.04045
C          C       0.95583   0.46708   0.74375   0.03687
C          C       0.30650   0.45884   0.73003  -0.13548
C          C       0.69892   0.54429   0.74430  -0.13544
C          C       0.01459   0.53944   0.75597  -0.12671
C          C       0.98563   0.45374   0.72291  -0.12797
C          C       0.15143   0.62694   0.73250   0.07195
C          C       0.84722   0.36682   0.72595   0.07142
C          C       0.10846   0.59840   0.70960  -0.23312
C          C       0.89062   0.39453   0.71048  -0.23192
C          C       0.54039   0.02633   0.65183  -0.10126
C          C       0.45227   0.97213   0.64871  -0.10353
C          C       0.16817   0.67200   0.69140   0.06135
C          C       0.82950   0.32178   0.68433   0.06130
C          C       0.20588   0.69684   0.60238  -0.12519
C          C       0.79236   0.29887   0.58834  -0.12415
C          C       0.35160   0.71082   0.85398   0.21799
C          C       0.64557   0.28789   0.82596   0.21888
C          C       0.22003   0.73922   0.56838  -0.07995
C          C       0.77609   0.25615   0.55676  -0.07881
C          C       0.19694   0.75769   0.62354  -0.09821
C          C       0.79670   0.23547   0.62000  -0.10181
C          C       0.36947   0.75624   0.81697   0.03438
C          C       0.62639   0.24242   0.78941   0.03411
C          C       0.15950   0.73344   0.71295  -0.09599
C          C       0.83419   0.25803   0.71250  -0.09621
C          C       0.40907   0.77912   0.74250  -0.17392
C          C       0.58578   0.21985   0.72114  -0.17479
C          C       0.14527   0.69105   0.74652  -0.13401
C          C       0.85030   0.30069   0.74520  -0.13621
C          C       0.42844   0.82278   0.71035  -0.00416
C          C       0.56597   0.17627   0.68859  -0.00281
C          C       0.40581   0.84403   0.75310   0.20162
C          C       0.58875   0.15470   0.72822   0.20186
C          C       0.36462   0.81988   0.82462  -0.15316
C          C       0.63074   0.17846   0.79467  -0.15233
C          C       0.34688   0.77734   0.85602  -0.10149
C          C       0.64913   0.22098   0.82392  -0.09982
C          C       0.46116   0.90901   0.66929   0.21895
C          C       0.53192   0.08974   0.65339   0.22092
C          C       0.47922   0.95505   0.65485   0.04021
C          C       0.51348   0.04351   0.64624   0.03828
C          C       0.97118   0.51053   0.75774  -0.10011
C          C       0.02915   0.48262   0.72341  -0.10591
C          C       0.52357   0.98297   0.65475  -0.12458
C          C       0.46913   0.01552   0.64321  -0.12828
C          C       0.47042   0.84787   0.64381   0.06632
C          C       0.52339   0.15147   0.62549   0.06398
N          N       0.46184   0.57310   0.29042  -0.34078
N          N       0.53881   0.42604   0.28896  -0.34286
N          N       0.11345   0.54560   0.33596  -0.34687
N          N       0.88608   0.45856   0.32050  -0.34506
N          N       0.31118   0.68868   0.36358  -0.32355
N          N       0.69006   0.31123   0.36060  -0.32445
N          N       0.42705   0.88678   0.22225  -0.33786
N          N       0.57657   0.11308   0.21769  -0.34075
N          N       0.46156   0.57463   0.77821  -0.34193
N          N       0.54168   0.43097   0.79787  -0.34056
N          N       0.11334   0.54064   0.83291  -0.34909
N          N       0.88668   0.45256   0.82692  -0.34419
N          N       0.30927   0.68751   0.87887  -0.32325
N          N       0.68826   0.31028   0.84455  -0.32474
N          N       0.42198   0.88621   0.73140  -0.34166
N          N       0.57183   0.11244   0.71028  -0.33846

