data_crystal

_audit_creation_method 'AiiDA-DDEC plugin'

_cell_length_a        37.69293
_cell_length_b        37.11987
_cell_length_c         8.44992

_cell_angle_alpha     89.06702
_cell_angle_beta     66.01929
_cell_angle_gamma     120.59889

_symmetry_space_group_name_Hall 'P 1'
_symmetry_space_group_name_H-M  'P 1'

loop_
_symmetry_equiv_pos_as_xyz
 'x,y,z'

loop_
_atom_site_label
_atom_site_type_symbol
_atom_site_fract_x
_atom_site_fract_y
_atom_site_fract_z
_atom_site_charge
H          H       0.30101   0.60444   0.27845   0.10294
H          H       0.41256   0.71799   0.30738   0.10565
H          H       0.28907   0.71145   0.39109   0.10641
H          H       0.70606   0.42838   0.34167   0.10428
H          H       0.59762   0.31818   0.28223   0.10058
H          H       0.70365   0.31165   0.32705   0.10781
H          H       0.35252   0.59994   0.10045   0.09956
H          H       0.43990   0.78292   0.10787   0.11623
H          H       0.23967   0.68670   0.30012   0.10961
H          H       0.68626   0.46211   0.20417   0.11023
H          H       0.55670   0.25004   0.37745   0.10705
H          H       0.77612   0.35822   0.13518   0.09623
H          H       0.39288   0.56288   0.03365   0.10327
H          H       0.48108   0.86234   0.06869   0.12479
H          H       0.17103   0.64996   0.25553   0.12425
H          H       0.64694   0.49718   0.19335   0.12307
H          H       0.52178   0.17667   0.33997   0.12621
H          H       0.85625   0.39338   0.08803   0.10765
H          H       0.46927   0.63484   0.30540   0.10659
H          H       0.35945   0.84077   0.52904   0.11815
H          H       0.16751   0.53220   0.29355   0.11315
H          H       0.51387   0.37156   0.43791   0.11378
H          H       0.65512   0.19234   0.14733   0.11265
H          H       0.83834   0.47789   0.40401   0.10905
H          H       0.42549   0.66982   0.38748   0.10101
H          H       0.31934   0.76044   0.57833   0.11164
H          H       0.23574   0.56855   0.34498   0.10683
H          H       0.55356   0.33694   0.45627   0.10692
H          H       0.69078   0.26717   0.17543   0.10400
H          H       0.75561   0.43998   0.46486   0.10204
H          H       0.48907   0.44349   0.23548   0.11843
H          H       0.57194   0.07681   0.28254   0.11225
H          H       0.94286   0.51813   0.32270   0.11711
H          H       0.51338   0.58651   0.26114   0.11571
H          H       0.42874   0.95826   0.27995   0.11612
H          H       0.06932   0.49764   0.21636   0.11667
H          H       0.59305   0.63637   0.16074   0.11107
H          H       0.39031   0.98195   0.22627   0.09549
H          H       0.06694   0.44817   0.06628   0.09146
H          H       0.43039   0.39845   0.18988   0.09445
H          H       0.62588   0.05592   0.19226   0.10073
H          H       0.00377   0.60133   0.15840   0.11639
H          H       0.62034   0.63822   0.29494   0.12825
H          H       0.37036   0.01334   0.34248   0.12644
H          H       0.01737   0.39224   0.14915   0.12732
H          H       0.37193   0.38588   0.30725   0.12712
H          H       0.61408   0.01222   0.34511   0.13634
H          H       0.01029   0.63392   0.31226   0.12589
H          H       0.55895   0.61722   0.40275   0.09347
H          H       0.37414   0.97585   0.46150   0.10941
H          H       0.02857   0.42196   0.30663   0.11221
H          H       0.40543   0.39835   0.42439   0.11380
H          H       0.59076   0.04394   0.43179   0.09842
H          H       0.95641   0.58139   0.38485   0.09711
H          H       0.46427   0.57002   0.00166   0.24333
H          H       0.45235   0.91612   0.12814   0.24381
H          H       0.13258   0.55549   0.12632   0.24314
H          H       0.52378   0.43336   0.29356   0.25373
H          H       0.58988   0.13624   0.10188   0.24857
H          H       0.92291   0.47577   0.06099   0.22728
H          H       0.41831   0.53772   0.39329   0.10087
H          H       0.47051   0.91586   0.43437   0.07737
H          H       0.08366   0.58423   0.40876   0.10332
H          H       0.58594   0.51722   0.33472   0.10365
H          H       0.49748   0.10331   0.41462   0.10608
H          H       0.89290   0.42300   0.40572   0.09574
H          H       0.29568   0.57385   0.75541   0.10308
H          H       0.40996   0.68632   0.78020   0.11269
H          H       0.29016   0.68480   0.85108   0.10615
H          H       0.69560   0.39093   0.88776   0.10387
H          H       0.58687   0.28228   0.82667   0.10463
H          H       0.70769   0.28491   0.75335   0.10301
H          H       0.31239   0.53835   0.87660   0.10873
H          H       0.43658   0.76090   0.54496   0.10654
H          H       0.24057   0.66193   0.77901   0.10857
H          H       0.67941   0.42664   0.72504   0.10304
H          H       0.57996   0.24245   0.67547   0.10437
H          H       0.75577   0.30639   0.84367   0.10288
H          H       0.34870   0.49815   0.84028   0.12372
H          H       0.46866   0.83887   0.52050   0.12008
H          H       0.16929   0.62814   0.75277   0.12733
H          H       0.64111   0.46144   0.68938   0.12416
H          H       0.54267   0.17126   0.62359   0.10955
H          H       0.83729   0.34609   0.78426   0.12204
H          H       0.48543   0.61979   0.59622   0.10577
H          H       0.35363   0.80404   0.04228   0.11795
H          H       0.15344   0.50464   0.81863   0.10958
H          H       0.50611   0.33780   0.96776   0.11218
H          H       0.62511   0.14245   0.76034   0.10587
H          H       0.84651   0.46658   0.73260   0.11402
H          H       0.44862   0.65992   0.62811   0.10832
H          H       0.31994   0.72527   0.06139   0.09602
H          H       0.22542   0.53856   0.84827   0.10534
H          H       0.54457   0.30288   0.00748   0.11050
H          H       0.66124   0.21410   0.82651   0.09554
H          H       0.76589   0.42707   0.77926   0.10473
H          H       0.47657   0.40138   0.77402   0.12631
H          H       0.55486   0.04540   0.80754   0.11765
H          H       0.94201   0.49684   0.77416   0.11549
H          H       0.49735   0.54359   0.79286   0.10754
H          H       0.41842   0.93272   0.74949   0.12946
H          H       0.06578   0.47672   0.71905   0.11478
H          H       0.60998   0.59908   0.78803   0.13253
H          H       0.36767   0.00293   0.83137   0.12495
H          H       0.00500   0.36327   0.71141   0.12684
H          H       0.34195   0.35519   0.89269   0.12280
H          H       0.61055   0.02822   0.66722   0.09987
H          H       0.98004   0.57210   0.69477   0.10989
H          H       0.55061   0.58447   0.88546   0.09537
H          H       0.39441   0.01464   0.97274   0.09486
H          H       0.00848   0.39454   0.87069   0.11626
H          H       0.35888   0.39654   0.00522   0.10659
H          H       0.60675   0.98619   0.79767   0.13793
H          H       0.98797   0.60103   0.85946   0.12495
H          H       0.58336   0.59235   0.64677   0.10171
H          H       0.36553   0.96041   0.94881   0.09514
H          H       0.05717   0.41682   0.64492   0.09428
H          H       0.37537   0.35881   0.00266   0.09602
H          H       0.58299   0.01530   0.90974   0.10229
H          H       0.94041   0.54459   0.93392   0.10540
H          H       0.47241   0.54689   0.57255   0.23603
H          H       0.42833   0.88306   0.65217   0.23320
H          H       0.13010   0.54189   0.61163   0.24205
H          H       0.54604   0.41081   0.66426   0.24040
H          H       0.56541   0.11432   0.52343   0.24040
H          H       0.91603   0.46334   0.60740   0.24332
H          H       0.39326   0.48051   0.91689   0.10437
H          H       0.46675   0.88754   0.89669   0.08911
H          H       0.07035   0.55237   0.93671   0.08847
H          H       0.56304   0.46716   0.90396   0.09262
H          H       0.50414   0.07970   0.91481   0.09863
H          H       0.90074   0.39433   0.85781   0.10530
C          C       0.28859   0.65435   0.33623   0.07872
C          C       0.35878   0.65776   0.29576   0.08173
C          C       0.35274   0.71908   0.35212   0.07821
C          C       0.71114   0.37307   0.32584   0.07727
C          C       0.64694   0.37450   0.32668   0.07653
C          C       0.64748   0.30897   0.30451   0.07416
C          C       0.31472   0.63616   0.30330  -0.18158
C          C       0.37766   0.69963   0.31944  -0.18883
C          C       0.30776   0.69574   0.36653  -0.18957
C          C       0.68935   0.39493   0.33386  -0.19245
C          C       0.62756   0.33225   0.30638  -0.19015
C          C       0.68856   0.32953   0.32001  -0.18341
C          C       0.24472   0.63141   0.32236   0.04605
C          C       0.38513   0.63721   0.25222   0.05709
C          C       0.37659   0.76587   0.34522   0.06137
C          C       0.75883   0.39531   0.30779   0.06669
C          C       0.62346   0.39657   0.32798   0.04065
C          C       0.62657   0.26477   0.28022   0.04860
C          C       0.37702   0.60707   0.15084  -0.11958
C          C       0.42262   0.79535   0.20373  -0.11490
C          C       0.22441   0.65269   0.29982  -0.10949
C          C       0.64831   0.44190   0.25795  -0.10701
C          C       0.57908   0.23822   0.32287  -0.10207
C          C       0.78853   0.38309   0.20171  -0.11489
C          C       0.40060   0.58658   0.10941  -0.17612
C          C       0.44539   0.84021   0.17870  -0.17642
C          C       0.18507   0.63183   0.27349  -0.17646
C          C       0.62614   0.46203   0.24922  -0.19069
C          C       0.55883   0.19613   0.30317  -0.18809
C          C       0.83450   0.40378   0.17088  -0.16919
C          C       0.43387   0.59637   0.16552   0.18859
C          C       0.42232   0.85690   0.29349   0.19325
C          C       0.16437   0.58833   0.26886   0.21154
C          C       0.57749   0.43689   0.31109   0.21865
C          C       0.58611   0.17918   0.23980   0.21201
C          C       0.85316   0.43828   0.24249   0.19464
C          C       0.44318   0.62705   0.26299  -0.16978
C          C       0.37713   0.82772   0.43919  -0.16694
C          C       0.18380   0.56626   0.29416  -0.19205
C          C       0.55183   0.39143   0.38581  -0.21303
C          C       0.63386   0.20552   0.19464  -0.19665
C          C       0.82401   0.45087   0.34885  -0.17219
C          C       0.41886   0.64698   0.30713  -0.12550
C          C       0.35452   0.78270   0.46501  -0.12299
C          C       0.22283   0.58729   0.32092  -0.11791
C          C       0.57443   0.37194   0.39425  -0.11724
C          C       0.65364   0.24745   0.21327  -0.10901
C          C       0.77754   0.42965   0.38140  -0.12775
C          C       0.43385   0.53335   0.25887   0.08670
C          C       0.48145   0.93035   0.29430   0.09714
C          C       0.09203   0.57707   0.27709   0.09217
C          C       0.57151   0.49996   0.24837   0.09802
C          C       0.51914   0.10533   0.27432   0.08468
C          C       0.91939   0.44173   0.26327   0.08879
C          C       0.46816   0.52221   0.25277  -0.02995
C          C       0.49203   0.97614   0.28167  -0.03713
C          C       0.04660   0.54041   0.28173  -0.02581
C          C       0.53388   0.50669   0.25941  -0.01554
C          C       0.50962   0.06008   0.27180  -0.02825
C          C       0.96601   0.47606   0.25787  -0.02867
C          C       0.46133   0.48149   0.24743   0.20203
C          C       0.53186   0.00939   0.28900   0.18250
C          C       0.01016   0.54580   0.31427   0.17334
C          C       0.54042   0.54743   0.26764   0.17964
C          C       0.46808   0.02585   0.27782   0.18696
C          C       0.00285   0.47092   0.22322   0.19284
C          C       0.49464   0.47475   0.24843  -0.24413
C          C       0.54091   0.05111   0.27877  -0.26554
C          C       0.97073   0.51391   0.30240  -0.25563
C          C       0.50798   0.55478   0.26245  -0.26787
C          C       0.46036   0.98477   0.27774  -0.24679
C          C       0.04175   0.50249   0.24012  -0.24373
C          C       0.58805   0.61971   0.28437  -0.18259
C          C       0.39013   0.99895   0.33171  -0.18004
C          C       0.03052   0.42440   0.17311  -0.18602
C          C       0.40726   0.40549   0.29335  -0.18527
C          C       0.59987   0.02985   0.32051  -0.18380
C          C       0.99487   0.60060   0.29992  -0.18387
C          C       0.39395   0.50016   0.23595   0.25117
C          C       0.52277   0.92920   0.18404   0.21395
C          C       0.11244   0.61773   0.14343   0.21858
C          C       0.61099   0.52201   0.06012   0.21608
C          C       0.50437   0.12042   0.16561   0.21613
C          C       0.92025   0.40855   0.17025   0.24505
C          C       0.28596   0.62563   0.80933   0.08013
C          C       0.35446   0.62623   0.77274   0.06976
C          C       0.35306   0.69074   0.80804   0.08715
C          C       0.70706   0.34026   0.82318   0.07742
C          C       0.63929   0.33966   0.85386   0.07080
C          C       0.64361   0.27704   0.79579   0.07854
C          C       0.31038   0.60567   0.77980  -0.19103
C          C       0.37596   0.66943   0.78401  -0.19511
C          C       0.30772   0.66807   0.82725  -0.18156
C          C       0.68209   0.35983   0.85672  -0.18151
C          C       0.62010   0.29795   0.82814  -0.18066
C          C       0.68746   0.29915   0.79071  -0.18471
C          C       0.24016   0.60366   0.81061   0.05648
C          C       0.37730   0.60254   0.75149   0.04321
C          C       0.37585   0.73739   0.80573   0.05915
C          C       0.75416   0.36332   0.81041   0.04565
C          C       0.61528   0.36181   0.86341   0.05907
C          C       0.62294   0.23393   0.75948   0.06287
C          C       0.35055   0.55674   0.81084  -0.10505
C          C       0.41862   0.77010   0.65593  -0.12005
C          C       0.22172   0.62721   0.79086  -0.10191
C          C       0.64120   0.40702   0.78271  -0.11158
C          C       0.58954   0.22066   0.69985  -0.10064
C          C       0.77548   0.34171   0.81604  -0.11159
C          C       0.37109   0.53354   0.79186  -0.19012
C          C       0.43672   0.81424   0.64195  -0.17321
C          C       0.18091   0.60804   0.77533  -0.17637
C          C       0.61958   0.42683   0.76174  -0.17834
C          C       0.56868   0.18032   0.66724  -0.15672
C          C       0.82190   0.36412   0.78410  -0.20315
C          C       0.42014   0.55587   0.71180   0.20803
C          C       0.41305   0.82664   0.78055   0.19116
C          C       0.15661   0.56395   0.77977   0.20232
C          C       0.57095   0.40132   0.82130   0.20431
C          C       0.58092   0.15165   0.68990   0.19539
C          C       0.84850   0.40969   0.74791   0.22193
C          C       0.44740   0.60181   0.65349  -0.19811
C          C       0.37160   0.79429   0.93413  -0.15917
C          C       0.17296   0.53927   0.80998  -0.19552
C          C       0.54415   0.35688   0.91487  -0.18030
C          C       0.61466   0.16433   0.74682  -0.18644
C          C       0.82676   0.43148   0.75227  -0.19424
C          C       0.42641   0.62443   0.67388  -0.10590
C          C       0.35287   0.75025   0.94451  -0.12578
C          C       0.21395   0.55879   0.82477  -0.12951
C          C       0.56599   0.33746   0.93569  -0.12831
C          C       0.63535   0.20490   0.78117  -0.13454
C          C       0.78093   0.40884   0.78176  -0.10505
C          C       0.41921   0.48878   0.77386   0.08239
C          C       0.47063   0.90215   0.77115   0.09036
C          C       0.08353   0.55336   0.79280   0.09521
C          C       0.55884   0.46080   0.78348   0.09455
C          C       0.50954   0.07729   0.77805   0.08699
C          C       0.92149   0.41840   0.72383   0.08733
C          C       0.45429   0.47946   0.77439  -0.01695
C          C       0.47831   0.94669   0.77573  -0.04220
C          C       0.04223   0.51896   0.76768  -0.02635
C          C       0.52026   0.46568   0.79047  -0.03382
C          C       0.49604   0.03094   0.77485  -0.02262
C          C       0.96643   0.45510   0.71978  -0.02624
C          C       0.44852   0.43911   0.77158   0.17453
C          C       0.51723   0.97940   0.79221   0.18659
C          C       0.00644   0.52426   0.78621   0.17921
C          C       0.52531   0.50583   0.79870   0.19749
C          C       0.45784   0.99883   0.75599   0.17600
C          C       0.00153   0.44945   0.70543   0.19100
C          C       0.48154   0.43279   0.77857  -0.21992
C          C       0.52508   0.02031   0.79469  -0.25600
C          C       0.96986   0.49300   0.75762  -0.26665
C          C       0.49294   0.51246   0.78883  -0.26061
C          C       0.44906   0.95710   0.75981  -0.22889
C          C       0.03912   0.48150   0.72674  -0.23829
C          C       0.57699   0.58065   0.78217  -0.18166
C          C       0.38683   0.99544   0.87929  -0.18694
C          C       0.01866   0.39617   0.72796  -0.18494
C          C       0.36956   0.37742   0.92500  -0.18418
C          C       0.58919   0.00200   0.79361  -0.18230
C          C       0.97692   0.56947   0.83055  -0.18849
C          C       0.39111   0.46228   0.68915   0.21718
C          C       0.51341   0.90780   0.62474   0.20933
C          C       0.10200   0.59778   0.69560   0.22134
C          C       0.60379   0.49611   0.62610   0.22884
C          C       0.48044   0.08905   0.74793   0.24037
C          C       0.92720   0.39265   0.59571   0.21502
N          N       0.45900   0.57579   0.12458  -0.40302
N          N       0.44212   0.90309   0.25880  -0.40906
N          N       0.12438   0.56416   0.24354  -0.39213
N          N       0.55200   0.45403   0.30954  -0.37847
N          N       0.56848   0.13629   0.22423  -0.37715
N          N       0.90222   0.46357   0.19831  -0.41020
N          N       0.36359   0.47973   0.20151  -0.37965
N          N       0.55201   0.92376   0.09836  -0.35510
N          N       0.13065   0.65003   0.03527  -0.36397
N          N       0.64234   0.53946   0.91298  -0.35060
N          N       0.49371   0.13552   0.08632  -0.35505
N          N       0.91581   0.38175   0.09515  -0.37779
N          N       0.44372   0.53545   0.69635  -0.37563
N          N       0.42722   0.87140   0.76545  -0.41688
N          N       0.11802   0.54257   0.74326  -0.40142
N          N       0.54656   0.41679   0.78176  -0.41607
N          N       0.56044   0.10978   0.65265  -0.41190
N          N       0.89544   0.43552   0.71130  -0.37866
N          N       0.36537   0.44421   0.63096  -0.36219
N          N       0.54599   0.91052   0.51029  -0.35208
N          N       0.11735   0.63294   0.61841  -0.36438
N          N       0.63777   0.52312   0.49677  -0.37132
N          N       0.46177   0.10310   0.71580  -0.36916
N          N       0.92501   0.36866   0.50724  -0.35809
O          O       0.42270   0.45003   0.23841  -0.15638
O          O       0.55882   0.99752   0.31115  -0.15276
O          O       0.01568   0.58334   0.35754  -0.17343
O          O       0.57978   0.57774   0.27856  -0.16201
O          O       0.43647   0.03504   0.28656  -0.15947
O          O      -0.00046   0.43550   0.16930  -0.14708
O          O       0.41149   0.40535   0.75414  -0.20549
O          O       0.54545   0.96803   0.80456  -0.15666
O          O       0.00854   0.55970   0.83971  -0.16302
O          O       0.56308   0.53620   0.81620  -0.15305
O          O       0.42964   0.00764   0.72159  -0.19618
O          O       0.99655   0.41162   0.67119  -0.16059

