data_crystal

_audit_creation_method 'AiiDA-DDEC plugin'

_cell_length_a        36.67274
_cell_length_b        36.58321
_cell_length_c         8.05670

_cell_angle_alpha     89.77147
_cell_angle_beta     88.81900
_cell_angle_gamma     120.38610

_symmetry_space_group_name_Hall 'P 1'
_symmetry_space_group_name_H-M  'P 1'

loop_
_symmetry_equiv_pos_as_xyz
 'x,y,z'

loop_
_atom_site_label
_atom_site_type_symbol
_atom_site_fract_x
_atom_site_fract_y
_atom_site_fract_z
_atom_site_charge
H          H       0.48389   0.64060   0.42811   0.12306
H          H       0.35853   0.83974   0.42643   0.12373
H          H       0.15911   0.51561   0.42415   0.12334
H          H       0.51909   0.35941   0.45390   0.12293
H          H       0.63944   0.15742   0.41871   0.12324
H          H       0.84121   0.48225   0.42361   0.12212
H          H       0.44053   0.67410   0.48268   0.10229
H          H       0.32554   0.76273   0.48826   0.10437
H          H       0.23619   0.55798   0.47381   0.10253
H          H       0.56224   0.32555   0.49981   0.10332
H          H       0.67254   0.23425   0.47978   0.10112
H          H       0.76386   0.43743   0.47874   0.10286
H          H       0.47468   0.42246   0.20481   0.10899
H          H       0.57505   0.04978   0.23768   0.10623
H          H       0.95271   0.52921   0.24109   0.10781
H          H       0.52837   0.57706   0.20035   0.10813
H          H       0.42488   0.94977   0.11494   0.11064
H          H       0.05215   0.47640   0.14835   0.11306
H          H       0.38936   0.47717   0.11388   0.11461
H          H       0.52234   0.91038   0.08927   0.11597
H          H       0.09371   0.61471   0.12530   0.11544
H          H       0.61435   0.52288   0.11551   0.11449
H          H       0.47768   0.09057   0.10263   0.11490
H          H       0.91245   0.39104   0.09418   0.11275
H          H       0.31691   0.53994   0.51356   0.09919
H          H       0.46036   0.77781   0.49830   0.09777
H          H       0.21997   0.68290   0.50011   0.09883
H          H       0.68160   0.46121   0.51219   0.10022
H          H       0.53879   0.22452   0.50409   0.09722
H          H       0.77323   0.32112   0.49891   0.09891
H          H       0.24051   0.48931   0.47928   0.10033
H          H       0.50747   0.74844   0.45227   0.09906
H          H       0.24513   0.75917   0.45936   0.10335
H          H       0.75844   0.50951   0.46286   0.10099
H          H       0.49064   0.25308   0.47592   0.10198
H          H       0.74133   0.24518   0.43089   0.09754
H          H       0.41331   0.70872   0.38228   0.10234
H          H       0.29260   0.70103   0.38538   0.10268
H          H       0.29936   0.58737   0.37560   0.10234
H          H       0.58858   0.29067   0.38210   0.10255
H          H       0.70852   0.29660   0.36202   0.10361
H          H       0.70354   0.41127   0.37239   0.10390
H          H       0.20768   0.41986   0.08987   0.09973
H          H       0.57759   0.78258   0.07016   0.09999
H          H       0.22368   0.79542   0.04853   0.10266
H          H       0.79626   0.57967   0.07071   0.10000
H          H       0.41903   0.21304   0.09001   0.09942
H          H       0.78926   0.20834   0.06275   0.09977
H          H       0.33568   0.57062   0.24340   0.09879
H          H       0.43107   0.76263   0.24719   0.09805
H          H       0.24061   0.66688   0.24789   0.09956
H          H       0.66766   0.42937   0.24118   0.09888
H          H       0.57038   0.23761   0.24295   0.09989
H          H       0.76360   0.33476   0.22084   0.10008
H          H       0.24811   0.39576   0.25817   0.10097
H          H       0.60376   0.85044   0.22038   0.09970
H          H       0.15767   0.75712   0.22313   0.10186
H          H       0.75520   0.60342   0.24431   0.10115
H          H       0.39524   0.14627   0.25285   0.10120
H          H       0.85390   0.25045   0.22823   0.09914
H          H       0.32443   0.44414   0.30325   0.10527
H          H       0.55684   0.88012   0.26642   0.10427
H          H       0.12733   0.68096   0.29167   0.10353
H          H       0.67869   0.55514   0.29944   0.10332
H          H       0.44417   0.11920   0.29444   0.10566
H          H       0.88083   0.32656   0.27600   0.10334
H          H       0.97504   0.42715   0.13208   0.09947
H          H       0.45206   0.02673   0.11065   0.09984
H          H       0.42444   0.44893   0.19553   0.09899
H          H       0.57871   0.55060   0.20399   0.09940
H          H       0.03021   0.57878   0.25231   0.09909
H          H       0.54820   0.97247   0.23432   0.09964
H          H       0.48141   0.64313   0.93184   0.12248
H          H       0.36141   0.84430   0.92293   0.12340
H          H       0.15866   0.51630   0.93258   0.12302
H          H       0.51637   0.36090   0.95456   0.12316
H          H       0.63934   0.15951   0.91381   0.12356
H          H       0.84028   0.48194   0.91426   0.12325
H          H       0.43733   0.67573   0.98620   0.10176
H          H       0.32643   0.76691   0.98557   0.10122
H          H       0.23526   0.56177   0.98310   0.10220
H          H       0.55933   0.32698   0.00437   0.10305
H          H       0.67145   0.23599   0.97526   0.10364
H          H       0.76273   0.43999   0.97174   0.10234
H          H       0.47278   0.42494   0.71564   0.10868
H          H       0.57794   0.05232   0.70654   0.10739
H          H       0.94896   0.52299   0.68982   0.10875
H          H       0.52787   0.57984   0.69157   0.10918
H          H       0.42594   0.95033   0.62217   0.11056
H          H       0.04775   0.46784   0.70180   0.10884
H          H       0.38923   0.48025   0.61330   0.11362
H          H       0.52443   0.91073   0.58490   0.11478
H          H       0.08776   0.60769   0.61197   0.11262
H          H       0.61242   0.52434   0.61776   0.11320
H          H       0.47795   0.09112   0.59244   0.11299
H          H       0.90600   0.38316   0.60687   0.11502
H          H       0.32121   0.54053   0.00880   0.09870
H          H       0.45861   0.77662   0.00238   0.09844
H          H       0.22707   0.67992   0.00723   0.09779
H          H       0.68237   0.46000   0.00152   0.09676
H          H       0.54052   0.22396   0.00779   0.09784
H          H       0.78009   0.31991   0.99029   0.09801
H          H       0.24478   0.49264   0.96559   0.10006
H          H       0.50490   0.74617   0.95836   0.10019
H          H       0.25825   0.75635   0.94030   0.09719
H          H       0.75935   0.50763   0.94930   0.09874
H          H       0.49201   0.25152   0.96652   0.09958
H          H       0.75262   0.24382   0.94411   0.10165
H          H       0.41074   0.71042   0.88549   0.10295
H          H       0.29083   0.70408   0.86783   0.10344
H          H       0.29633   0.58958   0.87251   0.10330
H          H       0.58547   0.29178   0.87446   0.10430
H          H       0.70517   0.29730   0.87325   0.10360
H          H       0.70053   0.41213   0.88230   0.10292
H          H       0.20725   0.41684   0.60443   0.10001
H          H       0.57920   0.78391   0.57222   0.10033
H          H       0.20524   0.79075   0.58773   0.10121
H          H       0.79371   0.58276   0.57321   0.09982
H          H       0.41808   0.21415   0.60339   0.10131
H          H       0.77461   0.20437   0.52769   0.10211
H          H       0.33341   0.57208   0.74352   0.09930
H          H       0.42953   0.76321   0.73861   0.09977
H          H       0.23590   0.66578   0.73000   0.10022
H          H       0.66480   0.42983   0.74222   0.09860
H          H       0.56794   0.23769   0.74176   0.09890
H          H       0.75825   0.33215   0.74085   0.09957
H          H       0.25143   0.39521   0.76187   0.10059
H          H       0.60395   0.85043   0.73119   0.10109
H          H       0.13966   0.74486   0.75631   0.09991
H          H       0.75139   0.60669   0.73688   0.10009
H          H       0.39464   0.14679   0.76106   0.10132
H          H       0.84019   0.24053   0.69260   0.10018
H          H       0.32744   0.44645   0.79870   0.10312
H          H       0.55661   0.87954   0.77609   0.10508
H          H       0.11555   0.66892   0.80119   0.10610
H          H       0.67503   0.55719   0.79410   0.10397
H          H       0.44371   0.11961   0.79492   0.10564
H          H       0.87085   0.31601   0.76462   0.10362
H          H       0.97023   0.41782   0.69473   0.09921
H          H       0.45212   0.02717   0.61795   0.09994
H          H       0.42303   0.45197   0.70664   0.09986
H          H       0.57769   0.55271   0.69807   0.09925
H          H       0.02601   0.57275   0.69184   0.10014
H          H       0.55189   0.97514   0.70176   0.10013
C          C       0.35935   0.64564   0.38095   0.07853
C          C       0.35532   0.71042   0.38550   0.08134
C          C       0.29037   0.64108   0.38120   0.08206
C          C       0.64301   0.35344   0.37918   0.08259
C          C       0.64605   0.28815   0.37433   0.08271
C          C       0.71154   0.35704   0.36880   0.08197
C          C       0.37898   0.68992   0.38525  -0.17876
C          C       0.31114   0.68546   0.38681  -0.17917
C          C       0.31496   0.62170   0.38125  -0.18003
C          C       0.62292   0.30913   0.38115  -0.18052
C          C       0.69035   0.31256   0.37002  -0.18259
C          C       0.68737   0.37687   0.37560  -0.18201
C          C       0.38484   0.62489   0.36204   0.06314
C          C       0.37596   0.75696   0.36683   0.06381
C          C       0.24407   0.61585   0.36223   0.06349
C          C       0.61801   0.37474   0.36753   0.06247
C          C       0.62439   0.24168   0.35741   0.06178
C          C       0.75802   0.38283   0.34892   0.06055
C          C       0.40124   0.50809   0.16918  -0.22989
C          C       0.49161   0.89082   0.15034  -0.23223
C          C       0.11246   0.60254   0.17955  -0.23057
C          C       0.60226   0.49194   0.17440  -0.23041
C          C       0.50857   0.10931   0.15684  -0.23020
C          C       0.89299   0.40247   0.15057  -0.22736
C          C       0.36782   0.58574   0.28649  -0.17994
C          C       0.41535   0.77952   0.28769  -0.18073
C          C       0.22285   0.63404   0.28966  -0.18076
C          C       0.63537   0.41417   0.28957  -0.17820
C          C       0.58536   0.22009   0.28273  -0.17863
C          C       0.78054   0.36672   0.26794  -0.17623
C          C       0.39118   0.56519   0.25920   0.00040
C          C       0.43520   0.82346   0.25306  -0.00095
C          C       0.17889   0.61104   0.26313  -0.00110
C          C       0.61203   0.43478   0.26609  -0.00188
C          C       0.56502   0.17619   0.25208  -0.00089
C          C       0.82486   0.39081   0.24190   0.00023
C          C       0.32835   0.49586   0.15942   0.06474
C          C       0.50407   0.83006   0.14003   0.06541
C          C       0.17488   0.67491   0.15282   0.06550
C          C       0.67508   0.50415   0.15395   0.06505
C          C       0.49593   0.16971   0.15434   0.06717
C          C       0.83243   0.32891   0.13704   0.06607
C          C       0.43463   0.58649   0.30612   0.19544
C          C       0.41320   0.84524   0.29904   0.19700
C          C       0.15565   0.56691   0.30986   0.19605
C          C       0.56847   0.41353   0.32071   0.19821
C          C       0.58620   0.15367   0.29583   0.19708
C          C       0.84687   0.43406   0.29443   0.19658
C          C       0.30503   0.50918   0.06663  -0.13441
C          C       0.49006   0.79219   0.05333  -0.13240
C          C       0.21231   0.69706   0.05618  -0.13631
C          C       0.69860   0.49113   0.05697  -0.13394
C          C       0.50900   0.20747   0.06438  -0.13525
C          C       0.79575   0.30461   0.04609  -0.13507
C          C       0.45150   0.62608   0.38681  -0.15146
C          C       0.37357   0.82213   0.38546  -0.15099
C          C       0.17761   0.54873   0.38558  -0.14966
C          C       0.55148   0.37388   0.40593  -0.15063
C          C       0.62527   0.17575   0.37855  -0.15015
C          C       0.82357   0.44997   0.37926  -0.15181
C          C       0.26201   0.48202   0.04127  -0.08458
C          C       0.51632   0.77529   0.02771  -0.08526
C          C       0.22962   0.74004   0.01791  -0.08554
C          C       0.74185   0.51816   0.02665  -0.08585
C          C       0.48152   0.22283   0.04071  -0.08533
C          C       0.78040   0.26162   0.01921  -0.08372
C          C       0.42734   0.64456   0.41525  -0.12590
C          C       0.35551   0.77942   0.41898  -0.12466
C          C       0.22035   0.57240   0.41174  -0.12678
C          C       0.57553   0.35523   0.42967  -0.12813
C          C       0.64358   0.21831   0.41011  -0.12695
C          C       0.78068   0.42505   0.40775  -0.12675
C          C       0.24123   0.44102   0.10950  -0.09884
C          C       0.55730   0.79603   0.08839  -0.09877
C          C       0.21001   0.76186   0.07728  -0.09977
C          C       0.76248   0.55879   0.09309  -0.10098
C          C       0.44040   0.20097   0.10810  -0.09855
C          C       0.80118   0.24181   0.08412  -0.10062
C          C       0.26399   0.42732   0.20186  -0.09392
C          C       0.57204   0.83421   0.17145  -0.08947
C          C       0.17277   0.74029   0.17350  -0.09418
C          C       0.73943   0.57227   0.18864  -0.09144
C          C       0.42698   0.16342   0.19812  -0.09116
C          C       0.83769   0.26551   0.17481  -0.09140
C          C       0.44430   0.53214   0.21430   0.21760
C          C       0.46705   0.90946   0.19623   0.22066
C          C       0.09242   0.55885   0.22376   0.21793
C          C       0.55895   0.46774   0.22530   0.21989
C          C       0.53257   0.09000   0.19772   0.21690
C          C       0.91192   0.44534   0.20143   0.21907
C          C       0.30706   0.45442   0.22675  -0.13534
C          C       0.54575   0.85111   0.19674  -0.13258
C          C       0.15540   0.69726   0.21115  -0.12962
C          C       0.69619   0.54522   0.21902  -0.13180
C          C       0.45440   0.14793   0.22087  -0.13716
C          C       0.85312   0.30853   0.20112  -0.13390
C          C       0.47316   0.51519   0.19758   0.04024
C          C       0.48437   0.95556   0.17503   0.03989
C          C       0.04652   0.53070   0.20313   0.04050
C          C       0.53002   0.48439   0.20497   0.03925
C          C       0.51592   0.04409   0.17591   0.03549
C          C       0.95817   0.47468   0.18871   0.03760
C          C       0.45827   0.47142   0.19489  -0.12628
C          C       0.52720   0.98433   0.20427  -0.12899
C          C       0.01814   0.54560   0.22413  -0.13074
C          C       0.54495   0.52816   0.19944  -0.12823
C          C       0.47360   0.01536   0.13727  -0.12500
C          C       0.98675   0.46031   0.15901  -0.12327
C          C       0.48618   0.45627   0.20035  -0.10324
C          C       0.54252   0.02764   0.20660  -0.10070
C          C       0.97476   0.51807   0.21854  -0.10407
C          C       0.51705   0.54330   0.19723  -0.10162
C          C       0.45795   0.97185   0.13912  -0.10450
C          C       0.03013   0.48771   0.16785  -0.10636
C          C       0.37399   0.52358   0.19197   0.06578
C          C       0.47656   0.84805   0.17745   0.06542
C          C       0.15555   0.62925   0.19618   0.06490
C          C       0.62937   0.47639   0.19425   0.06514
C          C       0.52380   0.15196   0.18375   0.06411
C          C       0.84995   0.37454   0.17173   0.06454
C          C       0.35665   0.64739   0.87996   0.08363
C          C       0.35319   0.71254   0.87881   0.08088
C          C       0.28790   0.64350   0.87303   0.08126
C          C       0.63996   0.35432   0.88347   0.08279
C          C       0.64290   0.28897   0.87746   0.08329
C          C       0.70841   0.35779   0.87813   0.08119
C          C       0.37644   0.69167   0.88443  -0.18084
C          C       0.30890   0.68802   0.87512  -0.18095
C          C       0.31232   0.62393   0.87730  -0.18038
C          C       0.61973   0.30998   0.88097  -0.18316
C          C       0.68709   0.31336   0.87902  -0.18066
C          C       0.68434   0.37773   0.88404  -0.18147
C          C       0.38207   0.62649   0.86338   0.06195
C          C       0.37523   0.75924   0.86045   0.06385
C          C       0.24152   0.61722   0.85486   0.06051
C          C       0.61511   0.37579   0.87073   0.06126
C          C       0.62219   0.24263   0.85714   0.06043
C          C       0.75488   0.38283   0.85649   0.06367
C          C       0.40063   0.51108   0.66875  -0.22947
C          C       0.49344   0.89184   0.64510  -0.23193
C          C       0.10717   0.59638   0.66679  -0.23057
C          C       0.60020   0.49335   0.67618  -0.23039
C          C       0.50850   0.11004   0.64902  -0.22979
C          C       0.88737   0.39563   0.66281  -0.22899
C          C       0.36555   0.58746   0.78704  -0.17758
C          C       0.41480   0.78087   0.78153  -0.17987
C          C       0.21908   0.63331   0.77656  -0.17683
C          C       0.63260   0.41505   0.79137  -0.17777
C          C       0.58344   0.22065   0.78111  -0.17714
C          C       0.77619   0.36477   0.78037  -0.17897
C          C       0.38944   0.56741   0.75951  -0.00139
C          C       0.43594   0.82499   0.74858  -0.00029
C          C       0.17496   0.60860   0.75302   0.00090
C          C       0.60958   0.43599   0.76784  -0.00170
C          C       0.56392   0.17691   0.74836  -0.00086
C          C       0.82036   0.38741   0.75024  -0.00172
C          C       0.32746   0.49695   0.66016   0.06511
C          C       0.50491   0.83057   0.64157   0.06518
C          C       0.16617   0.67047   0.65472   0.06560
C          C       0.67295   0.50560   0.65813   0.06532
C          C       0.49479   0.17002   0.65144   0.06560
C          C       0.82429   0.32407   0.63622   0.06506
C          C       0.43289   0.58905   0.80714   0.19695
C          C       0.41493   0.84774   0.79416   0.19583
C          C       0.15306   0.56478   0.80462   0.19761
C          C       0.56599   0.41494   0.82214   0.19701
C          C       0.58558   0.15486   0.79179   0.19736
C          C       0.84366   0.43102   0.79762   0.19692
C          C       0.30228   0.50863   0.57143  -0.13378
C          C       0.49147   0.79320   0.55220  -0.13430
C          C       0.20305   0.69670   0.56018  -0.13372
C          C       0.69718   0.49254   0.56616  -0.13349
C          C       0.50755   0.20800   0.56328  -0.13233
C          C       0.78725   0.30315   0.54438  -0.13600
C          C       0.44909   0.62836   0.88955  -0.15096
C          C       0.37538   0.82570   0.88163  -0.14892
C          C       0.17624   0.54894   0.88729  -0.15133
C          C       0.54880   0.37531   0.90755  -0.15082
C          C       0.62456   0.17737   0.87487  -0.15087
C          C       0.82159   0.44920   0.87591  -0.15051
C          C       0.25934   0.47992   0.55113  -0.08465
C          C       0.51811   0.77674   0.52611  -0.08466
C          C       0.21699   0.73965   0.53621  -0.08562
C          C       0.74038   0.52004   0.53667  -0.08412
C          C       0.48019   0.22378   0.54603  -0.08721
C          C       0.76953   0.26044   0.50536  -0.08571
C          C       0.42447   0.64632   0.91810  -0.12605
C          C       0.35621   0.78288   0.91483  -0.12767
C          C       0.21881   0.57439   0.91353  -0.12670
C          C       0.57266   0.35650   0.93290  -0.12654
C          C       0.64218   0.21980   0.90749  -0.12490
C          C       0.77861   0.42582   0.90583  -0.12498
C          C       0.24077   0.43900   0.61930  -0.10008
C          C       0.55867   0.79708   0.59073  -0.10072
C          C       0.19437   0.75729   0.60657  -0.10279
C          C       0.76012   0.56125   0.59742  -0.09978
C          C       0.43935   0.20179   0.61635  -0.10128
C          C       0.78848   0.23766   0.55817  -0.09810
C          C       0.26553   0.42675   0.70607  -0.09047
C          C       0.57261   0.83443   0.67885  -0.09204
C          C       0.15743   0.73152   0.69978  -0.08971
C          C       0.73635   0.57483   0.68759  -0.08997
C          C       0.42611   0.16388   0.70347  -0.09159
C          C       0.82539   0.25801   0.64907  -0.09426
C          C       0.44351   0.53533   0.71480   0.21829
C          C       0.46947   0.91128   0.68831   0.21997
C          C       0.08850   0.55306   0.71557   0.21946
C          C       0.55692   0.46943   0.72690   0.21898
C          C       0.53299   0.09119   0.68959   0.21829
C          C       0.90765   0.43878   0.71017   0.21799
C          C       0.30841   0.45544   0.72625  -0.13108
C          C       0.54608   0.85107   0.70355  -0.13430
C          C       0.14357   0.68863   0.72408  -0.13634
C          C       0.69325   0.54720   0.71847  -0.13357
C          C       0.45358   0.14827   0.72139  -0.13403
C          C       0.84305   0.30072   0.68812  -0.13072
C          C       0.47224   0.51819   0.69902   0.04133
C          C       0.48675   0.95727   0.66392   0.03980
C          C       0.04256   0.52368   0.69909   0.04243
C          C       0.52843   0.48660   0.70728   0.04052
C          C       0.51719   0.04551   0.66535   0.03640
C          C       0.95400   0.46706   0.69466   0.03850
C          C       0.45691   0.47430   0.70189  -0.12841
C          C       0.53003   0.98652   0.68150  -0.13022
C          C       0.01415   0.53883   0.69200  -0.12635
C          C       0.54382   0.53046   0.69696  -0.12630
C          C       0.47441   0.01626   0.63577  -0.12388
C          C       0.98237   0.45181   0.69339  -0.12946
C          C       0.48449   0.45878   0.70726  -0.10167
C          C       0.54489   0.02980   0.68419  -0.10023
C          C       0.97080   0.51114   0.69105  -0.10029
C          C       0.51621   0.54598   0.69398  -0.10418
C          C       0.45934   0.97290   0.63733  -0.10395
C          C       0.02585   0.47960   0.69717  -0.10436
C          C       0.37289   0.52595   0.69143   0.06615
C          C       0.47761   0.84902   0.67485   0.06554
C          C       0.14978   0.62476   0.68688   0.06491
C          C       0.62721   0.47770   0.69673   0.06586
C          C       0.52297   0.15246   0.67823   0.06501
C          C       0.84394   0.36935   0.68075   0.06578
N          N       0.46044   0.57031   0.28195  -0.34072
N          N       0.42869   0.88724   0.26799  -0.34527
N          N       0.11344   0.54135   0.28714  -0.34282
N          N       0.54265   0.42965   0.29831  -0.34432
N          N       0.57034   0.11185   0.26676  -0.33982
N          N       0.88921   0.46048   0.27276  -0.34018
N          N       0.45923   0.57342   0.78288  -0.34391
N          N       0.43126   0.88978   0.76175  -0.34313
N          N       0.11093   0.53776   0.78464  -0.34552
N          N       0.54034   0.43128   0.79969  -0.34241
N          N       0.57047   0.11324   0.76066  -0.34203
N          N       0.88615   0.45598   0.77533  -0.34087

