data_crystal

_audit_creation_method 'AiiDA-DDEC plugin'

_cell_length_a        37.29424
_cell_length_b        36.76450
_cell_length_c         8.13676

_cell_angle_alpha     99.83474
_cell_angle_beta     66.37994
_cell_angle_gamma     120.41499

_symmetry_space_group_name_Hall 'P 1'
_symmetry_space_group_name_H-M  'P 1'

loop_
_symmetry_equiv_pos_as_xyz
 'x,y,z'

loop_
_atom_site_label
_atom_site_type_symbol
_atom_site_fract_x
_atom_site_fract_y
_atom_site_fract_z
_atom_site_charge
H          H       0.33176   0.57414   0.43645   0.11373
H          H       0.44422   0.76360   0.31050   0.11812
H          H       0.23748   0.66981   0.41932   0.11759
H          H       0.68156   0.44270   0.34772   0.11566
H          H       0.57594   0.23977   0.49504   0.11597
H          H       0.76306   0.33161   0.39222   0.11818
H          H       0.37118   0.53576   0.42388   0.12147
H          H       0.47888   0.84152   0.32519   0.12271
H          H       0.16348   0.63331   0.39204   0.12075
H          H       0.64479   0.47981   0.31686   0.11953
H          H       0.53648   0.16421   0.44736   0.11421
H          H       0.84132   0.37051   0.37591   0.12261
H          H       0.49088   0.62906   0.03328   0.10347
H          H       0.36893   0.83596   0.24170   0.11273
H          H       0.19417   0.53779   0.08543   0.11938
H          H       0.54909   0.36320   0.17177   0.11849
H          H       0.65337   0.17755   0.98595   0.11211
H          H       0.85682   0.48238   0.18642   0.10444
H          H       0.45124   0.66861   0.05730   0.11499
H          H       0.33432   0.75785   0.23325   0.11550
H          H       0.26673   0.57321   0.13014   0.10496
H          H       0.58634   0.32649   0.20724   0.11476
H          H       0.69358   0.25356   0.04430   0.11579
H          H       0.77752   0.44250   0.20782   0.11546
H          H       0.49656   0.42926   0.29011   0.11470
H          H       0.57349   0.06357   0.31131   0.11903
H          H       0.94426   0.50895   0.40114   0.11108
H          H       0.52520   0.57479   0.25441   0.11986
H          H       0.43993   0.95018   0.19786   0.12507
H          H       0.07909   0.49186   0.14650   0.13142
H          H       0.57944   0.60883   0.41899   0.08753
H          H       0.38579   0.98083   0.40059   0.08795
H          H       0.02078   0.40364   0.27760   0.09635
H          H       0.43508   0.38231   0.23507   0.10168
H          H       0.62635   0.03878   0.22299   0.10608
H          H       0.98412   0.58664   0.33913   0.11190
H          H       0.63699   0.62099   0.31810   0.12883
H          H       0.38871   0.02601   0.32719   0.13029
H          H       0.99789   0.36833   0.12023   0.12261
H          H       0.37976   0.37441   0.36843   0.13218
H          H       0.61675   0.99828   0.35740   0.13828
H          H      -0.00066   0.61890   0.51750   0.13590
H          H       0.55252   0.60717   0.96273   0.09824
H          H       0.36241   0.95714   0.93459   0.10758
H          H       0.01059   0.40999   0.78842   0.11385
H          H       0.39320   0.40128   0.00860   0.11554
H          H       0.57891   0.02141   0.93538   0.09667
H          H       0.93203   0.56174   0.09998   0.09810
H          H       0.48123   0.56242   0.08361   0.23008
H          H       0.42538   0.89713   0.26223   0.24108
H          H       0.13804   0.55467   0.07380   0.25440
H          H       0.56013   0.42978   0.11887   0.24763
H          H       0.57603   0.11752   0.03825   0.25488
H          H       0.91805   0.47679   0.16187   0.23964
H          H       0.41961   0.51923   0.43648   0.09602
H          H       0.50294   0.91562   0.34247   0.09505
H          H       0.09316   0.57527   0.43933   0.08994
H          H       0.59091   0.49698   0.36606   0.09449
H          H       0.52353   0.10216   0.42673   0.09136
H          H       0.90773   0.41417   0.38307   0.09821
H          H       0.31045   0.56251   0.90470   0.10977
H          H       0.41570   0.75402   0.83895   0.11451
H          H       0.21827   0.66045   0.89157   0.12036
H          H       0.65864   0.43297   0.83498   0.11903
H          H       0.54797   0.23531   0.96569   0.11602
H          H       0.73800   0.32671   0.89999   0.10935
H          H       0.35241   0.52804   0.90391   0.12209
H          H       0.45519   0.83193   0.81929   0.11996
H          H       0.14339   0.62398   0.87678   0.11934
H          H       0.62373   0.47190   0.80454   0.11264
H          H       0.51025   0.15754   0.95990   0.12147
H          H       0.81446   0.36668   0.90190   0.12200
H          H       0.47488   0.63291   0.58046   0.11310
H          H       0.35288   0.82800   0.68133   0.11242
H          H       0.16902   0.52451   0.58704   0.11808
H          H       0.52632   0.35741   0.65626   0.11742
H          H       0.63540   0.16456   0.59264   0.11150
H          H       0.83452   0.47513   0.66362   0.11130
H          H       0.43224   0.66931   0.60294   0.11729
H          H       0.31362   0.74949   0.70357   0.11400
H          H       0.24462   0.56195   0.60470   0.11609
H          H       0.56354   0.31923   0.68087   0.11754
H          H       0.67348   0.24260   0.61610   0.11739
H          H       0.75580   0.43521   0.67927   0.11540
H          H       0.47777   0.42483   0.77153   0.12116
H          H       0.55718   0.05294   0.80400   0.10996
H          H       0.92181   0.50725   0.90566   0.11034
H          H       0.50469   0.57137   0.79422   0.11241
H          H       0.41440   0.93683   0.77353   0.11285
H          H       0.05021   0.48108   0.69792   0.12289
H          H       0.58059   0.61654   0.72400   0.10168
H          H       0.38055   0.96329   0.69573   0.09644
H          H       0.03994   0.42094   0.54892   0.09483
H          H       0.40813   0.37532   0.80274   0.09174
H          H       0.61166   0.03025   0.69871   0.09358
H          H       0.95589   0.58131   0.87264   0.10512
H          H       0.61067   0.62187   0.86033   0.14137
H          H       0.35703   0.99440   0.84264   0.12776
H          H       0.99129   0.37064   0.63526   0.13143
H          H       0.35632   0.37643   0.88696   0.13311
H          H       0.60362   0.98860   0.81999   0.13841
H          H       0.97663   0.61498   0.03631   0.13107
H          H       0.59734   0.57699   0.47527   0.09667
H          H       0.41516   0.03233   0.47947   0.10760
H          H       0.96302   0.38301   0.31275   0.10813
H          H       0.42030   0.39311   0.47096   0.10739
H          H       0.59270   0.03214   0.45886   0.09118
H          H       0.95278   0.56637   0.56823   0.09090
H          H       0.46851   0.56541   0.60384   0.25367
H          H       0.42741   0.88812   0.61058   0.24316
H          H       0.10824   0.53686   0.59973   0.26133
H          H       0.54238   0.42995   0.60398   0.26190
H          H       0.56702   0.10312   0.63950   0.25189
H          H       0.89477   0.46904   0.66019   0.24779
H          H       0.40249   0.51499   0.94007   0.11024
H          H       0.46661   0.89772   0.87906   0.09560
H          H       0.07040   0.56637   0.95597   0.09639
H          H       0.56301   0.48374   0.90443   0.09284
H          H       0.48861   0.08684   0.97256   0.10742
H          H       0.87973   0.41357   0.93007   0.10119
C          C       0.30224   0.64678   0.28120   0.37847
C          C       0.36518   0.64704   0.25906   0.38373
C          C       0.36472   0.70915   0.27103   0.38513
C          C       0.71968   0.36065   0.29897   0.37632
C          C       0.65851   0.35986   0.29501   0.37565
C          C       0.65930   0.29817   0.29149   0.38744
C          C       0.60227   0.59542   0.36765  -0.18443
C          C       0.40670   0.01483   0.36485  -0.18447
C          C       0.99694   0.39382   0.21098  -0.18440
C          C       0.41530   0.39392   0.34768  -0.18422
C          C       0.60221   0.01576   0.33652  -0.18019
C          C       0.98618   0.58668   0.47016  -0.18622
C          C       0.25708   0.62407   0.27499  -0.01889
C          C       0.38872   0.62375   0.24753  -0.01905
C          C       0.38673   0.75559   0.27359  -0.02556
C          C       0.76530   0.38440   0.30001  -0.02888
C          C       0.63631   0.38213   0.28060  -0.02161
C          C       0.63726   0.25192   0.27256  -0.01499
C          C       0.36664   0.58599   0.34792  -0.07585
C          C       0.42796   0.77975   0.29576  -0.06512
C          C       0.22748   0.64050   0.34891  -0.06728
C          C       0.65230   0.42538   0.31066  -0.06197
C          C       0.59312   0.22602   0.38480  -0.07859
C          C       0.78384   0.36467   0.34740  -0.06922
C          C       0.38902   0.56435   0.34048  -0.20064
C          C       0.44747   0.82362   0.30335  -0.19014
C          C       0.18573   0.61981   0.33292  -0.20452
C          C       0.63128   0.44623   0.29369  -0.20433
C          C       0.57083   0.18293   0.35711  -0.20380
C          C       0.82804   0.38663   0.33717  -0.20067
C          C       0.43400   0.57965   0.22605   0.21915
C          C       0.42574   0.84400   0.28738   0.21285
C          C       0.17380   0.58297   0.23513   0.21685
C          C       0.59369   0.42389   0.24482   0.21512
C          C       0.59204   0.16524   0.21063   0.21375
C          C       0.85491   0.42916   0.27596   0.22093
C          C       0.45600   0.61713   0.12230  -0.20599
C          C       0.38512   0.82007   0.26000  -0.20726
C          C       0.20346   0.56634   0.16123  -0.19854
C          C       0.57781   0.38047   0.21264  -0.20539
C          C       0.63662   0.19113   0.09885  -0.19653
C          C       0.83615   0.44931   0.23184  -0.21255
C          C       0.43397   0.63929   0.13522  -0.08571
C          C       0.36573   0.77650   0.25448  -0.07500
C          C       0.24403   0.58621   0.18410  -0.08689
C          C       0.59860   0.35996   0.23150  -0.08196
C          C       0.65916   0.23374   0.13160  -0.09382
C          C       0.79198   0.42732   0.24443  -0.07502
C          C       0.43919   0.51871   0.29344   0.08079
C          C       0.48952   0.91823   0.24895   0.08256
C          C       0.09681   0.57018   0.29719   0.08974
C          C       0.58351   0.48661   0.24246   0.08715
C          C       0.52514   0.09422   0.28795   0.08873
C          C       0.92560   0.43377   0.25804   0.08053
C          C       0.47582   0.50928   0.28085  -0.03473
C          C       0.49764   0.96336   0.25319  -0.02822
C          C       0.05276   0.53345   0.28853  -0.03642
C          C       0.54580   0.49480   0.25792  -0.02769
C          C       0.51392   0.04795   0.27092  -0.02627
C          C       0.97112   0.46795   0.26121  -0.01922
C          C       0.40544   0.48626   0.22129   0.23545
C          C       0.51555   0.90858   0.07332   0.21589
C          C       0.10496   0.61003   0.23227   0.21917
C          C       0.62575   0.51220   0.09436   0.21600
C          C       0.49303   0.10405   0.27055   0.22795
C          C       0.92567   0.40286   0.11595   0.21833
C          C       0.46823   0.46782   0.29088   0.20005
C          C       0.53587   0.99642   0.28383   0.19622
C          C       0.01363   0.53725   0.36478   0.19311
C          C       0.55320   0.53597   0.25036   0.17742
C          C       0.47627   0.01524   0.23930   0.18959
C          C       0.00964   0.46351   0.19084   0.18876
C          C       0.50290   0.46116   0.27999  -0.25846
C          C       0.54358   0.03794   0.29234  -0.26081
C          C       0.97388   0.50522   0.34775  -0.26875
C          C       0.51838   0.54258   0.26320  -0.23749
C          C       0.46897   0.97371   0.22932  -0.23242
C          C       0.04981   0.49622   0.20436  -0.21823
C          C       0.28148   0.63700   0.75844   0.38000
C          C       0.34356   0.63944   0.75954   0.38073
C          C       0.34080   0.70034   0.77036   0.38360
C          C       0.69663   0.35363   0.78552   0.37268
C          C       0.63531   0.35142   0.77609   0.37512
C          C       0.63545   0.29038   0.79307   0.38398
C          C       0.57842   0.60409   0.84325  -0.18406
C          C       0.37772   0.97981   0.82270  -0.18070
C          C       0.00706   0.40455   0.65738  -0.18590
C          C       0.39143   0.39409   0.87442  -0.19004
C          C       0.58811   0.00615   0.80883  -0.18677
C          C       0.96310   0.58248   0.99225  -0.18231
C          C       0.23632   0.61351   0.75105  -0.02112
C          C       0.36848   0.61830   0.75568  -0.02181
C          C       0.36243   0.74666   0.77085  -0.03370
C          C       0.74197   0.37814   0.78885  -0.02322
C          C       0.61321   0.37364   0.76090  -0.02820
C          C       0.61317   0.24394   0.79292  -0.01812
C          C       0.34663   0.57835   0.83802  -0.07603
C          C       0.40206   0.77050   0.80524  -0.06534
C          C       0.20719   0.63045   0.82642  -0.07349
C          C       0.62948   0.41659   0.79712  -0.06397
C          C       0.56714   0.21956   0.88707  -0.07010
C          C       0.75920   0.35943   0.85061  -0.07524
C          C       0.37042   0.55868   0.83550  -0.19868
C          C       0.42416   0.81451   0.79445  -0.20826
C          C       0.16462   0.60950   0.81890  -0.21400
C          C       0.60898   0.43823   0.78347  -0.22481
C          C       0.54574   0.17566   0.88163  -0.19648
C          C       0.80254   0.38205   0.85023  -0.19675
C          C       0.41683   0.57784   0.73938   0.22201
C          C       0.40702   0.83547   0.74556   0.22290
C          C       0.15035   0.57108   0.73324   0.21429
C          C       0.57165   0.41700   0.73283   0.21978
C          C       0.57026   0.15562   0.77473   0.21464
C          C       0.83044   0.42373   0.77876   0.22357
C          C       0.43891   0.61789   0.65497  -0.20077
C          C       0.36643   0.81165   0.71669  -0.19849
C          C       0.17964   0.55405   0.65586  -0.20018
C          C       0.55513   0.37378   0.69650  -0.20281
C          C       0.61644   0.18004   0.67817  -0.21010
C          C       0.81303   0.44280   0.71865  -0.19961
C          C       0.41523   0.63822   0.66664  -0.07963
C          C       0.34448   0.76798   0.72910  -0.07841
C          C       0.22188   0.57489   0.66570  -0.08735
C          C       0.57574   0.35248   0.71033  -0.08248
C          C       0.63780   0.22359   0.69024  -0.08250
C          C       0.76926   0.42063   0.72623  -0.07820
C          C       0.42228   0.51627   0.79503   0.08715
C          C       0.46966   0.90745   0.75077   0.09348
C          C       0.07346   0.56102   0.81418   0.09433
C          C       0.56086   0.48015   0.77045   0.09484
C          C       0.50290   0.08286   0.82673   0.08150
C          C       0.89861   0.42875   0.79382   0.08596
C          C       0.45849   0.50630   0.78005  -0.02306
C          C       0.47889   0.95321   0.76321  -0.03386
C          C       0.02805   0.52646   0.80957  -0.03054
C          C       0.52457   0.48967   0.78137  -0.03255
C          C       0.49389   0.03727   0.79987  -0.02550
C          C       0.94523   0.46295   0.78657  -0.03376
C          C       0.38928   0.48491   0.71663   0.21993
C          C       0.50732   0.90289   0.61046   0.22354
C          C       0.08607   0.60160   0.73805   0.21327
C          C       0.60517   0.51106   0.64639   0.21938
C          C       0.48071   0.09452   0.74672   0.22384
C          C       0.89743   0.39414   0.66955   0.24318
C          C       0.45064   0.46470   0.77772   0.19419
C          C       0.51922   0.98623   0.77535   0.18696
C          C       0.99100   0.53348   0.87299   0.18214
C          C       0.53133   0.53126   0.79723   0.17592
C          C       0.45285   0.00396   0.79550   0.18792
C          C       0.98202   0.45580   0.72642   0.19643
C          C       0.48398   0.45708   0.77498  -0.24101
C          C       0.52635   0.02763   0.79163  -0.26697
C          C       0.95051   0.50212   0.85875  -0.26994
C          C       0.49914   0.53926   0.78948  -0.27025
C          C       0.44619   0.96267   0.77465  -0.25444
C          C       0.02257   0.48753   0.73970  -0.24204
N          N       0.32207   0.62401   0.27379  -0.42370
N          N       0.38853   0.68965   0.25216  -0.42367
N          N       0.32155   0.68908   0.28666  -0.41507
N          N       0.70012   0.38290   0.29762  -0.41098
N          N       0.63597   0.31722   0.29891  -0.41944
N          N       0.70117   0.31811   0.29110  -0.43315
N          N       0.45956   0.56036   0.21212  -0.37424
N          N       0.44140   0.88795   0.30798  -0.38153
N          N       0.13303   0.56042   0.20651  -0.38883
N          N       0.56937   0.44158   0.22745  -0.37672
N          N       0.57105   0.12191   0.17144  -0.38104
N          N       0.89984   0.45344   0.25989  -0.37129
N          N       0.37726   0.46482   0.16479  -0.36472
N          N       0.53549   0.89866   0.93952  -0.34038
N          N       0.11204   0.64135   0.17822  -0.35234
N          N       0.65957   0.52959   0.97447  -0.34175
N          N       0.47161   0.11670   0.25318  -0.34932
N          N       0.91814   0.37509   0.01842  -0.35221
N          N       0.30226   0.61532   0.75290  -0.43114
N          N       0.36436   0.68178   0.76697  -0.41456
N          N       0.29903   0.67920   0.76871  -0.41703
N          N       0.67728   0.37516   0.77406  -0.40749
N          N       0.61232   0.30885   0.79017  -0.42828
N          N       0.67749   0.31106   0.79086  -0.41924
N          N       0.44269   0.55902   0.72450  -0.36917
N          N       0.42790   0.87969   0.72326  -0.37291
N          N       0.10740   0.54802   0.72410  -0.37480
N          N       0.54917   0.43691   0.71869  -0.37697
N          N       0.55132   0.11131   0.76231  -0.37690
N          N       0.87513   0.44796   0.76721  -0.36169
N          N       0.36168   0.46432   0.65626  -0.35453
N          N       0.53396   0.89674   0.49090  -0.34711
N          N       0.09877   0.63364   0.67045  -0.34202
N          N       0.63967   0.53319   0.53917  -0.34280
N          N       0.46582   0.10813   0.68789  -0.35370
N          N       0.89073   0.36658   0.57070  -0.36212
O          O       0.42638   0.43578   0.30896  -0.14389
O          O       0.56347   0.98431   0.29953  -0.15058
O          O       0.01762   0.57344   0.45363  -0.15208
O          O       0.59582   0.56986   0.21627  -0.18327
O          O       0.44672   0.02288   0.20884  -0.19844
O          O       0.00990   0.42830   0.09836  -0.20444
O          O       0.41032   0.43254   0.77490  -0.16282
O          O       0.54910   0.97493   0.77321  -0.15187
O          O       0.99728   0.57130   0.95170  -0.15910
O          O       0.56975   0.56123   0.82349  -0.14864
O          O       0.42039   0.01389   0.81753  -0.15720
O          O       0.97675   0.41775   0.65724  -0.15860

