data_crystal

_audit_creation_method 'AiiDA-DDEC plugin'

_cell_length_a        37.87856
_cell_length_b        37.01058
_cell_length_c         9.03777

_cell_angle_alpha     81.91807
_cell_angle_beta     124.84289
_cell_angle_gamma     120.22546

_symmetry_space_group_name_Hall 'P 1'
_symmetry_space_group_name_H-M  'P 1'

loop_
_symmetry_equiv_pos_as_xyz
 'x,y,z'

loop_
_atom_site_label
_atom_site_type_symbol
_atom_site_fract_x
_atom_site_fract_y
_atom_site_fract_z
_atom_site_charge
H          H       0.30347   0.59354   0.31778   0.10239
H          H       0.41885   0.70789   0.31841   0.10412
H          H       0.30274   0.71033   0.28581   0.10417
H          H       0.70825   0.41778   0.24473   0.10203
H          H       0.60529   0.30509   0.30909   0.11376
H          H       0.71772   0.30479   0.30769   0.11051
H          H       0.31924   0.56309   0.19008   0.10930
H          H       0.41482   0.75016   0.15024   0.10366
H          H       0.22883   0.67312   0.17686   0.10723
H          H       0.70094   0.45050   0.40883   0.10733
H          H       0.57478   0.24179   0.00231   0.10465
H          H       0.76029   0.32833   0.22873   0.11016
H          H       0.35479   0.52907   0.14668   0.12271
H          H       0.44705   0.82232   0.09066   0.10297
H          H       0.14945   0.63425   0.14356   0.12017
H          H       0.66058   0.48971   0.36749   0.12146
H          H       0.53834   0.16367   0.94551   0.11142
H          H       0.82771   0.36172   0.19087   0.12229
H          H       0.49867   0.64675   0.42198   0.11701
H          H       0.38618   0.85161   0.30433   0.10607
H          H       0.17676   0.53278   0.35632   0.11627
H          H       0.51698   0.37138   0.10223   0.11905
H          H       0.65326   0.17448   0.50675   0.11524
H          H       0.84220   0.48330   0.23277   0.12115
H          H       0.46300   0.68076   0.46861   0.10947
H          H       0.35719   0.78000   0.38097   0.09463
H          H       0.25857   0.57305   0.40140   0.10074
H          H       0.55775   0.33247   0.14094   0.11183
H          H       0.69118   0.25333   0.56207   0.10477
H          H       0.77442   0.44994   0.27750   0.10496
H          H       0.49587   0.43947   0.24292   0.10999
H          H       0.59367   0.06185   0.31866   0.11208
H          H       0.93271   0.51418   0.16195   0.11613
H          H       0.52439   0.58568   0.25036   0.11394
H          H       0.42329   0.94548   0.13098   0.11181
H          H       0.06778   0.49172   0.31728   0.11391
H          H       0.45250   0.58249   0.12604   0.24729
H          H       0.42504   0.87971   0.01373   0.24351
H          H       0.08267   0.53083   0.08921   0.23630
H          H       0.52640   0.44366   0.06733   0.24655
H          H       0.56971   0.11076   0.07117   0.23418
H          H       0.85988   0.44060   0.03234   0.23720
H          H       0.43619   0.51681   0.34429   0.09245
H          H       0.49709   0.91344   0.41077   0.09861
H          H       0.11469   0.59027   0.38321   0.09546
H          H       0.61134   0.50266   0.42884   0.10639
H          H       0.53165   0.10548   0.28349   0.10470
H          H       0.93438   0.44415   0.41832   0.09019
H          H       0.43576   0.45232   0.22730   0.12235
H          H       0.57613   0.98802   0.35421   0.11723
H          H       0.00222   0.56965   0.14390   0.12731
H          H       0.58367   0.57263   0.26163   0.12539
H          H       0.44048   0.01901   0.09041   0.12395
H          H       0.99702   0.43530   0.32889   0.11850
H          H       0.30018   0.58482   0.82565   0.09905
H          H       0.40215   0.69488   0.75134   0.10446
H          H       0.29669   0.70051   0.78501   0.10435
H          H       0.70341   0.40763   0.76826   0.10549
H          H       0.58811   0.29067   0.75612   0.10429
H          H       0.70181   0.29087   0.75969   0.09681
H          H       0.31202   0.55200   0.68325   0.11119
H          H       0.44885   0.76127   0.88560   0.11099
H          H       0.23052   0.66850   0.73375   0.10707
H          H       0.63911   0.41581   0.58127   0.09263
H          H       0.54386   0.22523   0.57195   0.10856
H          H       0.77378   0.32749   0.83532   0.10881
H          H       0.34870   0.51780   0.65026   0.12273
H          H       0.48577   0.83642   0.86661   0.12672
H          H       0.15104   0.63023   0.69734   0.11584
H          H       0.59453   0.45128   0.53816   0.09797
H          H       0.50489   0.14869   0.57131   0.12212
H          H       0.84196   0.36306   0.80215   0.12041
H          H       0.49013   0.63798   0.89560   0.12008
H          H       0.34175   0.82453   0.60090   0.11750
H          H       0.16196   0.51798   0.79964   0.11704
H          H       0.54344   0.37233   0.84804   0.10563
H          H       0.65243   0.16476   0.94043   0.11845
H          H       0.81660   0.46786   0.65252   0.11760
H          H       0.45302   0.67234   0.93126   0.10963
H          H       0.30458   0.74856   0.61628   0.10934
H          H       0.24281   0.55666   0.84083   0.10293
H          H       0.59064   0.33789   0.90248   0.10161
H          H       0.69106   0.24193   0.94356   0.11072
H          H       0.74551   0.43041   0.67631   0.09884
H          H       0.47974   0.42143   0.75238   0.11185
H          H       0.53966   0.03719   0.57754   0.10883
H          H       0.93179   0.51175   0.69525   0.11647
H          H       0.51257   0.56903   0.71930   0.11438
H          H       0.44969   0.94804   0.85177   0.10469
H          H       0.05904   0.48321   0.80853   0.11397
H          H       0.45343   0.57519   0.64515   0.25072
H          H       0.41078   0.88480   0.60073   0.26177
H          H       0.07609   0.52159   0.59379   0.23832
H          H       0.52141   0.43808   0.52563   0.23572
H          H       0.57878   0.09670   0.80155   0.25700
H          H       0.85844   0.44515   0.56084   0.23998
H          H       0.41759   0.50160   0.80339   0.09940
H          H       0.51050   0.91266   0.94486   0.10267
H          H       0.10909   0.58499   0.87582   0.09431
H          H       0.58588   0.46872   0.92473   0.09786
H          H       0.48120   0.07950   0.68089   0.10045
H          H       0.92744   0.43124   0.91586   0.09250
H          H       0.42152   0.43908   0.72934   0.12113
H          H       0.53684   0.96968   0.65113   0.11233
H          H       0.00097   0.56636   0.67625   0.12972
H          H       0.56999   0.55120   0.74474   0.12415
H          H       0.45383   0.01654   0.78291   0.11983
H          H       0.98799   0.42753   0.81824   0.12208
C          C       0.29788   0.64933   0.30379   0.08031
C          C       0.36467   0.64822   0.32445   0.07009
C          C       0.36335   0.71449   0.30023   0.07562
C          C       0.71963   0.36483   0.27774   0.07559
C          C       0.65592   0.36510   0.28471   0.06883
C          C       0.65853   0.30018   0.30188   0.08036
C          C       0.50239   0.47162   0.24627  -0.14573
C          C       0.55646   0.03633   0.27839  -0.12528
C          C       0.96213   0.50917   0.19485  -0.11488
C          C       0.51776   0.55353   0.24782  -0.11641
C          C       0.46056   0.97102   0.17209  -0.12270
C          C       0.03809   0.49650   0.28339  -0.14114
C          C       0.32063   0.62743   0.31639  -0.18149
C          C       0.38556   0.69174   0.31751  -0.18342
C          C       0.32001   0.69294   0.29724  -0.18355
C          C       0.69615   0.38545   0.26915  -0.17858
C          C       0.63665   0.32185   0.29787  -0.19050
C          C       0.70084   0.32224   0.29939  -0.17642
C          C       0.25040   0.62627   0.28938   0.05970
C          C       0.38747   0.62539   0.32417   0.05832
C          C       0.38359   0.75901   0.27171   0.05980
C          C       0.76129   0.38610   0.25659   0.06265
C          C       0.63264   0.38840   0.27507   0.04584
C          C       0.63508   0.25306   0.28671   0.06110
C          C       0.35880   0.58184   0.24261  -0.10818
C          C       0.40956   0.77236   0.19070  -0.11232
C          C       0.21878   0.64282   0.22122  -0.11624
C          C       0.66038   0.43280   0.33926  -0.11549
C          C       0.59147   0.22699   0.11404  -0.11745
C          C       0.77825   0.36253   0.23434  -0.10515
C          C       0.37895   0.56238   0.21708  -0.18761
C          C       0.42724   0.81315   0.15364  -0.17800
C          C       0.17298   0.62044   0.19961  -0.20002
C          C       0.63752   0.45531   0.31643  -0.19936
C          C       0.57117   0.18303   0.08177  -0.17337
C          C       0.81678   0.38149   0.21204  -0.16977
C          C       0.42899   0.58619   0.27368   0.19898
C          C       0.41854   0.84189   0.19237   0.19601
C          C       0.15655   0.57978   0.24235   0.21309
C          C       0.58522   0.43355   0.22589   0.21846
C          C       0.59361   0.16391   0.22261   0.19306
C          C       0.83972   0.42500   0.20870   0.20410
C          C       0.45915   0.62871   0.36956  -0.18440
C          C       0.39321   0.82936   0.27478  -0.17187
C          C       0.18836   0.56343   0.31548  -0.17188
C          C       0.55729   0.38884   0.16673  -0.18943
C          C       0.63600   0.18940   0.39725  -0.16302
C          C       0.82387   0.44929   0.23278  -0.18034
C          C       0.43873   0.64779   0.39399  -0.12655
C          C       0.37620   0.78863   0.31485  -0.13023
C          C       0.23436   0.58629   0.33942  -0.11300
C          C       0.58054   0.36692   0.19150  -0.10623
C          C       0.65691   0.23365   0.42810  -0.12676
C          C       0.78535   0.43008   0.25661  -0.13559
C          C       0.38715   0.49627   0.05823   0.21353
C          C       0.51979   0.90798   0.25808   0.23615
C          C       0.07285   0.59961   0.11978   0.22172
C          C       0.61193   0.52896   0.21276   0.21890
C          C       0.48467   0.08766  -0.00366   0.23940
C          C       0.90616   0.39515   0.22353   0.21474
C          C       0.43734   0.52657   0.22519   0.07872
C          C       0.48723   0.91622   0.27083   0.06324
C          C       0.08610   0.57066   0.24157   0.07596
C          C       0.58305   0.49733   0.27877   0.07021
C          C       0.52855   0.09068   0.17598   0.06768
C          C       0.91887   0.43876   0.27108   0.07316
C          C       0.47597   0.52002   0.23849   0.05449
C          C       0.49836   0.96167   0.24547   0.04411
C          C       0.04030   0.53481   0.23336   0.04850
C          C       0.54452   0.50532   0.25682   0.05544
C          C       0.51842   0.04542   0.20182   0.04646
C          C       0.96060   0.47154   0.25034   0.05318
C          C       0.46849   0.47890   0.23689  -0.13782
C          C       0.54639   0.99474   0.29898  -0.13956
C          C       0.00143   0.54035   0.18529  -0.12043
C          C       0.55160   0.54618   0.25616  -0.12138
C          C       0.47038   0.01235   0.14907  -0.13583
C          C       0.99845   0.46504   0.29113  -0.15321
C          C       0.29075   0.63904   0.79654   0.08118
C          C       0.35550   0.63794   0.79986   0.07339
C          C       0.35262   0.70327   0.77124   0.07175
C          C       0.70870   0.35242   0.76321   0.08311
C          C       0.64290   0.35170   0.75873   0.08181
C          C       0.64360   0.28605   0.76322   0.07772
C          C       0.48706   0.45391   0.74942  -0.13792
C          C       0.52072   0.01827   0.64121  -0.13264
C          C       0.95910   0.50503   0.71755  -0.11982
C          C       0.50465   0.53649   0.72638  -0.12710
C          C       0.46962   0.96751   0.79265  -0.12435
C          C       0.03094   0.48936   0.78228  -0.13676
C          C       0.31416   0.61777   0.80912  -0.18570
C          C       0.37339   0.68032   0.77609  -0.19288
C          C       0.31184   0.68233   0.78382  -0.18555
C          C       0.68647   0.37345   0.76291  -0.18549
C          C       0.62187   0.30794   0.75950  -0.19300
C          C       0.68671   0.30860   0.76503  -0.19570
C          C       0.24400   0.61619   0.78821   0.05564
C          C       0.37871   0.61545   0.80117   0.05092
C          C       0.37367   0.74843   0.75269   0.04075
C          C       0.75248   0.37517   0.75395   0.04755
C          C       0.61821   0.37403   0.74460   0.05702
C          C       0.62045   0.23975   0.75970   0.04036
C          C       0.35119   0.57137   0.73069  -0.11039
C          C       0.42466   0.77454   0.82026  -0.09897
C          C       0.21678   0.63564   0.75175  -0.11317
C          C       0.61931   0.40669   0.64420  -0.12365
C          C       0.56797   0.21233   0.65595  -0.10684
C          C       0.78164   0.35784   0.79098  -0.10772
C          C       0.37200   0.55175   0.71087  -0.19322
C          C       0.44606   0.81764   0.81089  -0.19487
C          C       0.17092   0.61377   0.72989  -0.19608
C          C       0.59375   0.42650   0.61800  -0.17903
C          C       0.54568   0.16863   0.65405  -0.20240
C          C       0.82149   0.37855   0.77444  -0.19448
C          C       0.42151   0.57610   0.76191   0.20740
C          C       0.41638   0.83617   0.73102   0.21570
C          C       0.14963   0.57056   0.74117   0.21840
C          C       0.56601   0.41414   0.69018   0.19425
C          C       0.57591   0.15101   0.75719   0.21334
C          C       0.83406   0.41810   0.72047   0.21184
C          C       0.45078   0.61958   0.84627  -0.19306
C          C       0.36514   0.81044   0.66174  -0.20070
C          C       0.17699   0.55095   0.78292  -0.18124
C          C       0.56501   0.38194   0.79215  -0.16865
C          C       0.62855   0.17801   0.85892  -0.20052
C          C       0.80651   0.43670   0.69012  -0.19298
C          C       0.42962   0.63873   0.86478  -0.12038
C          C       0.34436   0.76754   0.67210  -0.11085
C          C       0.22297   0.57325   0.80647  -0.11532
C          C       0.59106   0.36234   0.82009  -0.12079
C          C       0.65022   0.22148   0.86009  -0.11349
C          C       0.76661   0.41545   0.70528  -0.11172
C          C       0.37722   0.49086   0.51610   0.20941
C          C       0.50930   0.89908   0.72819   0.23033
C          C       0.06476   0.59055   0.60792   0.22208
C          C       0.60400   0.50764   0.75987   0.23253
C          C       0.47916   0.07628   0.44961   0.22659
C          C       0.89345   0.38845   0.68462   0.20852
C          C       0.42525   0.51477   0.70088   0.07935
C          C       0.48776   0.91060   0.79426   0.06854
C          C       0.07963   0.56344   0.73834   0.07380
C          C       0.56556   0.47352   0.78263   0.07179
C          C       0.50273   0.07503   0.64715   0.07040
C          C       0.91164   0.43120   0.76852   0.08301
C          C       0.46301   0.50540   0.72374   0.05241
C          C       0.49296   0.95398   0.75624   0.05080
C          C       0.03494   0.52863   0.74031   0.04868
C          C       0.52939   0.48540   0.75553   0.05201
C          C       0.49754   0.03172   0.67876   0.04890
C          C       0.95471   0.46567   0.75729   0.05255
C          C       0.45425   0.46381   0.73403  -0.14193
C          C       0.51868   0.97972   0.68104  -0.13200
C          C       0.99852   0.53603   0.70769  -0.12690
C          C       0.53753   0.52652   0.74158  -0.11810
C          C       0.47189   0.00614   0.75399  -0.12432
C          C       0.99107   0.45817   0.78950  -0.14110
N          N       0.45151   0.57108   0.23431  -0.40898
N          N       0.43352   0.88328   0.14251  -0.40324
N          N       0.10843   0.55304   0.20970  -0.40437
N          N       0.55889   0.45332   0.19651  -0.38500
N          N       0.57532   0.11879   0.19005  -0.40441
N          N       0.87674   0.44555   0.17121  -0.41258
N          N       0.34863   0.47261   0.92342  -0.36314
N          N       0.54269   0.90043   0.23301  -0.36979
N          N       0.06382   0.62297   0.02368  -0.36730
N          N       0.63630   0.55263   0.16354  -0.35258
N          N       0.45291   0.08533   0.84664  -0.38289
N          N       0.89602   0.36091   0.18354  -0.36390
N          N       0.44487   0.56024   0.73362  -0.39563
N          N       0.43509   0.87949   0.71966  -0.38488
N          N       0.10186   0.54503   0.71028  -0.39653
N          N       0.53719   0.43271   0.65676  -0.40296
N          N       0.55617   0.10784   0.77159  -0.37409
N          N       0.87247   0.44078   0.69338  -0.39348
N          N       0.34037   0.47294   0.36873  -0.35738
N          N       0.52772   0.89040   0.68213  -0.34473
N          N       0.05473   0.61272   0.50639  -0.36030
N          N       0.63235   0.53163   0.72647  -0.37213
N          N       0.45844   0.07718   0.29344  -0.35343
N          N       0.87810   0.35443   0.61795  -0.35114

