data_crystal

_audit_creation_method 'AiiDA-DDEC plugin'

_cell_length_a        36.61502
_cell_length_b        36.76048
_cell_length_c         8.02369

_cell_angle_alpha     87.81577
_cell_angle_beta     90.81670
_cell_angle_gamma     120.00581

_symmetry_space_group_name_Hall 'P 1'
_symmetry_space_group_name_H-M  'P 1'

loop_
_symmetry_equiv_pos_as_xyz
 'x,y,z'

loop_
_atom_site_label
_atom_site_type_symbol
_atom_site_fract_x
_atom_site_fract_y
_atom_site_fract_z
_atom_site_charge
H          H       0.43738   0.67111   0.49180   0.10306
H          H       0.32635   0.76185   0.48695   0.10290
H          H       0.23585   0.56161   0.49726   0.10234
H          H       0.56342   0.32627   0.50531   0.10402
H          H       0.67179   0.23313   0.49909   0.10279
H          H       0.76413   0.43514   0.48194   0.10338
H          H       0.47886   0.42588   0.19137   0.12419
H          H       0.57472   0.05383   0.23705   0.11574
H          H       0.94638   0.52082   0.21533   0.11528
H          H       0.52252   0.57494   0.25149   0.11507
H          H       0.42435   0.94690   0.20684   0.11886
H          H       0.05420   0.47834   0.20979   0.11800
H          H       0.40334   0.42588   0.44783   0.10157
H          H       0.60110   0.01723   0.40010   0.11125
H          H       0.98762   0.57595   0.42310   0.10711
H          H       0.57924   0.59164   0.44076   0.10800
H          H       0.38487   0.97032   0.29225   0.09562
H          H       0.01871   0.41637   0.37948   0.11135
H          H       0.41803   0.39297   0.34200   0.09830
H          H       0.61634   0.02917   0.18329   0.09698
H          H       0.97058   0.58879   0.22993   0.09356
H          H       0.59133   0.61810   0.23905   0.09488
H          H       0.38616   0.01938   0.30702   0.10911
H          H       0.02894   0.41102   0.16530   0.09672
H          H       0.36734   0.38800   0.30504   0.10661
H          H       0.61778   0.98625   0.29075   0.11271
H          H       0.01680   0.62810   0.33063   0.11133
H          H       0.63096   0.61251   0.35213   0.11387
H          H       0.41741   0.00676   0.44628   0.10475
H          H       0.98633   0.36790   0.27741   0.11265
H          H       0.38746   0.47786   0.12351   0.12152
H          H       0.52349   0.91147   0.11421   0.11320
H          H       0.09050   0.61396   0.10953   0.12135
H          H       0.61451   0.52394   0.11279   0.12031
H          H       0.47618   0.09136   0.11861   0.12206
H          H       0.90980   0.38663   0.10910   0.11698
H          H       0.41182   0.70773   0.37029   0.10397
H          H       0.29178   0.70192   0.37320   0.10265
H          H       0.29741   0.58817   0.37062   0.10313
H          H       0.58828   0.29036   0.38037   0.10312
H          H       0.70797   0.29549   0.36938   0.10426
H          H       0.70284   0.40959   0.37474   0.10312
H          H       0.33459   0.57261   0.22884   0.10046
H          H       0.42872   0.76248   0.22962   0.10032
H          H       0.23824   0.66672   0.23365   0.09877
H          H       0.66648   0.42726   0.23176   0.10004
H          H       0.57178   0.23820   0.23218   0.10008
H          H       0.76150   0.33307   0.22816   0.10024
H          H       0.47988   0.63645   0.45314   0.12005
H          H       0.36075   0.83929   0.44242   0.11993
H          H       0.15840   0.51934   0.45445   0.12009
H          H       0.52116   0.36170   0.46043   0.12070
H          H       0.63672   0.15628   0.45758   0.12063
H          H       0.84139   0.47809   0.43279   0.12041
H          H       0.32037   0.54561   0.50204   0.09544
H          H       0.45834   0.78034   0.49708   0.09798
H          H       0.22442   0.68263   0.49701   0.09729
H          H       0.67692   0.45631   0.50241   0.09819
H          H       0.54345   0.22558   0.49946   0.09635
H          H       0.77696   0.31977   0.49688   0.09585
H          H       0.24518   0.50004   0.43217   0.09809
H          H       0.50553   0.75284   0.43174   0.09920
H          H       0.25393   0.75893   0.44038   0.09871
H          H       0.75205   0.50423   0.43200   0.09914
H          H       0.49669   0.25472   0.43288   0.09882
H          H       0.74824   0.24484   0.43792   0.09874
H          H       0.20811   0.42291   0.04631   0.09732
H          H       0.57915   0.78897   0.02864   0.09760
H          H       0.21294   0.79443   0.06161   0.09671
H          H       0.79337   0.57618   0.02138   0.09710
H          H       0.42365   0.21823   0.03403   0.09920
H          H       0.78654   0.20856   0.03740   0.09755
H          H       0.24751   0.39644   0.22030   0.09837
H          H       0.60562   0.85399   0.19053   0.09662
H          H       0.14702   0.75147   0.22801   0.09862
H          H       0.75530   0.60296   0.18765   0.09635
H          H       0.39654   0.15243   0.21055   0.09812
H          H       0.85320   0.24781   0.19755   0.09818
H          H       0.32285   0.44390   0.28512   0.10557
H          H       0.55747   0.88014   0.26191   0.10736
H          H       0.12030   0.67552   0.28383   0.10671
H          H       0.68015   0.55612   0.26298   0.10731
H          H       0.44317   0.12335   0.28195   0.10551
H          H       0.87998   0.32223   0.26340   0.10734
H          H       0.43817   0.67263   0.98406   0.10367
H          H       0.32738   0.76376   0.98606   0.10351
H          H       0.23621   0.56272   0.00288   0.10284
H          H       0.56437   0.32465   0.01263   0.10340
H          H       0.67286   0.23338   0.99470   0.10288
H          H       0.76594   0.43497   0.98222   0.10325
H          H       0.47455   0.42195   0.74710   0.11786
H          H       0.57565   0.05535   0.69020   0.12430
H          H       0.94710   0.51956   0.73213   0.11332
H          H       0.52011   0.57273   0.73704   0.11682
H          H       0.42575   0.94720   0.74082   0.11479
H          H       0.05527   0.47888   0.66767   0.12362
H          H       0.36406   0.38113   0.81412   0.11230
H          H       0.57450   0.97077   0.93341   0.10105
H          H       0.98086   0.57339   0.91487   0.10918
H          H       0.57902   0.58906   0.93225   0.10830
H          H       0.40137   0.98047   0.91910   0.11395
H          H       0.98152   0.40350   0.91473   0.10226
H          H       0.41212   0.39668   0.92649   0.11195
H          H       0.60369   0.02356   0.85018   0.09950
H          H       0.97372   0.59012   0.70964   0.09298
H          H       0.58897   0.61580   0.73168   0.09285
H          H       0.38324   0.97211   0.70692   0.09550
H          H       0.02726   0.41477   0.79522   0.09618
H          H       0.40749   0.38141   0.71279   0.09624
H          H       0.61637   0.98500   0.78524   0.10564
H          H       0.01521   0.62649   0.83947   0.11500
H          H       0.62952   0.60955   0.83257   0.11235
H          H       0.38291   0.01297   0.82108   0.11396
H          H       0.97937   0.36558   0.77389   0.10732
H          H       0.38447   0.47654   0.63293   0.11653
H          H       0.52481   0.91265   0.61149   0.12144
H          H       0.09134   0.61396   0.60259   0.12026
H          H       0.60869   0.51984   0.61669   0.12092
H          H       0.47648   0.09237   0.61748   0.11938
H          H       0.91059   0.38589   0.60198   0.12163
H          H       0.41204   0.70888   0.86212   0.10365
H          H       0.29210   0.70320   0.87807   0.10336
H          H       0.29768   0.58937   0.87793   0.10359
H          H       0.58941   0.29045   0.88461   0.10280
H          H       0.70899   0.29584   0.86381   0.10417
H          H       0.70376   0.40994   0.87458   0.10388
H          H       0.33357   0.57317   0.73214   0.10060
H          H       0.42895   0.76346   0.72575   0.09978
H          H       0.23873   0.66757   0.73653   0.09896
H          H       0.66500   0.42713   0.73505   0.10020
H          H       0.57279   0.23925   0.73197   0.10051
H          H       0.76239   0.33299   0.72441   0.10039
H          H       0.47970   0.63683   0.94766   0.12025
H          H       0.36240   0.84122   0.94232   0.11940
H          H       0.15906   0.51980   0.95323   0.12032
H          H       0.52040   0.35822   0.97333   0.11970
H          H       0.63732   0.15642   0.95130   0.12084
H          H       0.84327   0.47729   0.93526   0.11959
H          H       0.32050   0.54405   0.00156   0.09607
H          H       0.45723   0.77910  -0.00048   0.09795
H          H       0.22325   0.68405   0.00179   0.09881
H          H       0.67936   0.45651  -0.00249   0.09714
H          H       0.54329   0.22358   0.99482   0.09587
H          H       0.77550   0.31962   0.00298   0.09720
H          H       0.24519   0.49720   0.93772   0.09836
H          H       0.50459   0.75187   0.93307   0.09892
H          H       0.25107   0.76027   0.95004   0.09979
H          H       0.75476   0.50253   0.92646   0.09934
H          H       0.49748   0.25373   0.92674   0.09870
H          H       0.74793   0.24510   0.94046   0.09778
H          H       0.20645   0.42552   0.53722   0.09757
H          H       0.57985   0.78935   0.53078   0.09827
H          H       0.21736   0.79505   0.54803   0.09702
H          H       0.78867   0.57768   0.52880   0.09692
H          H       0.42246   0.21745   0.53608   0.09744
H          H       0.78535   0.20729   0.54170   0.09704
H          H       0.24435   0.39718   0.71022   0.09865
H          H       0.60630   0.85426   0.69343   0.09703
H          H       0.15085   0.75377   0.71247   0.09729
H          H       0.74892   0.60253   0.69548   0.09800
H          H       0.39574   0.15066   0.70575   0.09885
H          H       0.85162   0.24595   0.70464   0.09637
H          H       0.31942   0.44329   0.78181   0.10747
H          H       0.55842   0.88092   0.76185   0.10476
H          H       0.12220   0.67760   0.77227   0.10794
H          H       0.67384   0.55392   0.76803   0.10637
H          H       0.44325   0.12254   0.77569   0.10837
H          H       0.87964   0.32087   0.76572   0.10451
C          C       0.35771   0.64552   0.37178   0.08082
C          C       0.35418   0.71029   0.37235   0.08187
C          C       0.28913   0.64199   0.37484   0.08215
C          C       0.64260   0.35243   0.37932   0.08188
C          C       0.64572   0.28745   0.37733   0.08188
C          C       0.71095   0.35562   0.37279   0.08239
C          C       0.37756   0.68947   0.37330  -0.18120
C          C       0.31009   0.68604   0.37551  -0.18047
C          C       0.31342   0.62225   0.37406  -0.18137
C          C       0.62253   0.30844   0.38124  -0.18278
C          C       0.68986   0.31150   0.37503  -0.18156
C          C       0.68683   0.37547   0.37773  -0.18076
C          C       0.38290   0.62446   0.35779   0.05993
C          C       0.37516   0.75660   0.35673   0.06030
C          C       0.24268   0.61721   0.36291   0.06190
C          C       0.61789   0.37417   0.36596   0.06212
C          C       0.62431   0.24130   0.36355   0.06086
C          C       0.75724   0.38091   0.35395   0.05902
C          C       0.36620   0.58642   0.27929  -0.17533
C          C       0.41405   0.77932   0.27742  -0.17601
C          C       0.22078   0.63468   0.28384  -0.17845
C          C       0.63486   0.41313   0.28318  -0.17747
C          C       0.58574   0.22024   0.28331  -0.17665
C          C       0.77905   0.36456   0.27484  -0.17528
C          C       0.38901   0.56510   0.26112   0.00127
C          C       0.43507   0.82356   0.25487   0.00005
C          C       0.17661   0.61180   0.26177   0.00111
C          C       0.61223   0.43478   0.26088   0.00224
C          C       0.56434   0.17631   0.26271  -0.00000
C          C       0.82323   0.38759   0.25098   0.00017
C          C       0.43164   0.58459   0.32048   0.19599
C          C       0.41452   0.84539   0.31212   0.19642
C          C       0.15395   0.56859   0.31956   0.19489
C          C       0.56958   0.41477   0.32164   0.19516
C          C       0.58417   0.15309   0.32224   0.19563
C          C       0.84589   0.43008   0.30528   0.19679
C          C       0.44825   0.62333   0.40246  -0.15412
C          C       0.37480   0.82180   0.39434  -0.15298
C          C       0.17657   0.55146   0.40479  -0.15091
C          C       0.55282   0.37523   0.40911  -0.15072
C          C       0.62334   0.17490   0.40679  -0.15264
C          C       0.82323   0.44645   0.38690  -0.15363
C          C       0.42459   0.64249   0.42204  -0.12727
C          C       0.35587   0.77889   0.41749  -0.12750
C          C       0.21949   0.57502   0.42692  -0.12826
C          C       0.57630   0.35568   0.43220  -0.12884
C          C       0.64268   0.21753   0.42819  -0.12818
C          C       0.78039   0.42256   0.41237  -0.12761
C          C       0.44111   0.53035   0.23558   0.23724
C          C       0.46971   0.91054   0.22778   0.23798
C          C       0.08994   0.55942   0.22558   0.23742
C          C       0.56071   0.47026   0.23071   0.23633
C          C       0.52931   0.08976   0.23341   0.23676
C          C       0.91031   0.43976   0.21907   0.23756
C          C       0.47033   0.51367   0.22193  -0.02557
C          C       0.48653   0.95653   0.21677  -0.03629
C          C       0.04409   0.53030   0.20869  -0.02935
C          C       0.53171   0.48731   0.21715  -0.03364
C          C       0.51262   0.04402   0.21893  -0.02721
C          C       0.95637   0.46893   0.20615  -0.03420
C          C       0.45818   0.47103   0.20466   0.18911
C          C       0.52985   0.98745   0.22341   0.19811
C          C       0.01312   0.54252   0.20942   0.18855
C          C       0.54406   0.53020   0.23253   0.19621
C          C       0.46951   0.01320   0.20909   0.18820
C          C       0.98742   0.45672   0.20464   0.19488
C          C       0.48855   0.45887   0.20193  -0.21313
C          C       0.54188   0.02980   0.22513  -0.23591
C          C       0.97060   0.51214   0.20817  -0.23196
C          C       0.51380   0.54245   0.23444  -0.24202
C          C       0.45750   0.97080   0.20932  -0.22086
C          C       0.02998   0.48712   0.20516  -0.23175
C          C       0.39882   0.50809   0.17882  -0.22445
C          C       0.49266   0.89171   0.17038  -0.22024
C          C       0.10949   0.60215   0.16898  -0.22319
C          C       0.60296   0.49303   0.17160  -0.22007
C          C       0.50675   0.10993   0.17586  -0.22475
C          C       0.89064   0.39782   0.16488  -0.22121
C          C       0.32708   0.49755   0.14871   0.07058
C          C       0.50369   0.83143   0.13655   0.06816
C          C       0.16999   0.67441   0.14764   0.06807
C          C       0.67428   0.50279   0.13622   0.06682
C          C       0.49672   0.17153   0.14395   0.06914
C          C       0.82963   0.32641   0.13838   0.06900
C          C       0.30427   0.51206   0.05296  -0.13816
C          C       0.48934   0.79487   0.04566  -0.13739
C          C       0.20715   0.69902   0.05483  -0.13414
C          C       0.69625   0.48820   0.04312  -0.13371
C          C       0.51152   0.20866   0.04559  -0.13744
C          C       0.79199   0.30369   0.04949  -0.13781
C          C       0.26185   0.48543   0.01582  -0.08433
C          C       0.51625   0.77973   0.00694  -0.08524
C          C       0.22250   0.74190   0.02415  -0.08653
C          C       0.73873   0.51435   0.00192  -0.08756
C          C       0.48548   0.22535   0.00602  -0.08572
C          C       0.77663   0.26168   0.01314  -0.08521
C          C       0.24115   0.44366   0.07553  -0.10019
C          C       0.55822   0.80081   0.05897  -0.10000
C          C       0.20094   0.76102   0.08559  -0.10262
C          C       0.76027   0.55581   0.05346  -0.10000
C          C       0.44394   0.20523   0.06496  -0.10187
C          C       0.79849   0.24127   0.06622  -0.09838
C          C       0.26338   0.42872   0.17104  -0.09567
C          C       0.57312   0.83744   0.14801  -0.09535
C          C       0.16375   0.73688   0.17698  -0.09273
C          C       0.73880   0.57093   0.14488  -0.09667
C          C       0.42866   0.16816   0.16232  -0.09657
C          C       0.83600   0.26339   0.15448  -0.09706
C          C       0.30586   0.45531   0.20723  -0.12872
C          C       0.54618   0.85252   0.18688  -0.12832
C          C       0.14849   0.69407   0.20792  -0.12940
C          C       0.69634   0.54472   0.18623  -0.12743
C          C       0.45475   0.15152   0.20178  -0.12715
C          C       0.85137   0.30542   0.19047  -0.12729
C          C       0.40062   0.41015   0.33051  -0.18764
C          C       0.60098   0.00389   0.27953  -0.18620
C          C       0.99822   0.59456   0.30516  -0.18470
C          C       0.59720   0.59747   0.32457  -0.18595
C          C       0.40497   0.00378   0.31888  -0.18891
C          C       0.00430   0.40220   0.26053  -0.18715
C          C       0.37212   0.52438   0.19255   0.06338
C          C       0.47642   0.84862   0.18378   0.06304
C          C       0.15236   0.62899   0.18853   0.06267
C          C       0.62938   0.47621   0.18615   0.06301
C          C       0.52328   0.15278   0.19082   0.06372
C          C       0.84750   0.37104   0.18113   0.06352
C          C       0.35793   0.64672   0.87150   0.08242
C          C       0.35458   0.71163   0.87125   0.08027
C          C       0.28950   0.64329   0.87978   0.08254
C          C       0.64352   0.35261   0.88156   0.08234
C          C       0.64684   0.28781   0.87608   0.08214
C          C       0.71204   0.35600   0.87013   0.08009
C          C       0.37783   0.69070   0.86966  -0.18136
C          C       0.31047   0.68739   0.87856  -0.18185
C          C       0.31370   0.62349   0.87861  -0.18108
C          C       0.62364   0.30866   0.88323  -0.18114
C          C       0.69095   0.31188   0.87160  -0.18295
C          C       0.68781   0.37580   0.87722  -0.18021
C          C       0.38277   0.62535   0.85648   0.05918
C          C       0.37577   0.75799   0.85466   0.06121
C          C       0.24308   0.61826   0.86758   0.06301
C          C       0.61791   0.37347   0.87155   0.06092
C          C       0.62526   0.24175   0.86142   0.06264
C          C       0.75844   0.38098   0.85100   0.06103
C          C       0.36538   0.58691   0.78063  -0.17553
C          C       0.41462   0.78050   0.77468  -0.17588
C          C       0.22126   0.63549   0.78629  -0.18046
C          C       0.63357   0.41226   0.78873  -0.17749
C          C       0.58658   0.22101   0.78178  -0.17685
C          C       0.78006   0.36441   0.77161  -0.17521
C          C       0.38771   0.56510   0.76275   0.00136
C          C       0.43608   0.82478   0.75324  -0.00054
C          C       0.17724   0.61228   0.76064   0.00094
C          C       0.60975   0.43277   0.76865   0.00059
C          C       0.56494   0.17712   0.76024  -0.00021
C          C       0.82431   0.38713   0.74821  -0.00082
C          C       0.43045   0.58440   0.82106   0.19566
C          C       0.41592   0.84687   0.81159   0.19743
C          C       0.15468   0.56901   0.81752   0.19592
C          C       0.56734   0.41201   0.83248   0.19615
C          C       0.58482   0.15383   0.81822   0.19629
C          C       0.84730   0.42948   0.80375   0.19608
C          C       0.44789   0.62375   0.89893  -0.15286
C          C       0.37620   0.82352   0.89400  -0.15272
C          C       0.17719   0.55208   0.90503  -0.15118
C          C       0.55189   0.37255   0.91950  -0.15311
C          C       0.62407   0.17530   0.90229  -0.15142
C          C       0.82492   0.44591   0.88716  -0.15198
C          C       0.42475   0.64347   0.91747  -0.12802
C          C       0.35689   0.78056   0.91646  -0.12733
C          C       0.21995   0.57596   0.93071  -0.12772
C          C       0.57640   0.35402   0.93989  -0.12917
C          C       0.64362   0.21788   0.92455  -0.12816
C          C       0.78200   0.42236   0.91157  -0.12978
C          C       0.43859   0.52878   0.74475   0.23634
C          C       0.47122   0.91190   0.72548   0.23666
C          C       0.09097   0.55968   0.71971   0.23824
C          C       0.55646   0.46648   0.74367   0.23565
C          C       0.52989   0.09078   0.72964   0.23689
C          C       0.91147   0.43914   0.71271   0.23736
C          C       0.46713   0.51122   0.73671  -0.03513
C          C       0.48788   0.95790   0.71293  -0.02760
C          C       0.04525   0.53041   0.70074  -0.03410
C          C       0.52743   0.48357   0.73474  -0.03015
C          C       0.51335   0.04520   0.71480  -0.03535
C          C       0.95756   0.46862   0.69659  -0.02860
C          C       0.45397   0.46784   0.74065   0.19365
C          C       0.53076   0.98915   0.69776   0.19001
C          C       0.01399   0.54204   0.71682   0.19707
C          C       0.54055   0.52690   0.73300   0.19018
C          C       0.47019   0.01391   0.72679   0.19701
C          C       0.98879   0.45728   0.67706   0.18845
C          C       0.48386   0.45500   0.73935  -0.23511
C          C       0.54249   0.03146   0.69892  -0.21485
C          C       0.97155   0.51163   0.71351  -0.24164
C          C       0.51067   0.53968   0.73405  -0.23092
C          C       0.45845   0.97167   0.72604  -0.24077
C          C       0.03133   0.48788   0.67892  -0.21308
C          C       0.39639   0.50704   0.68650  -0.22182
C          C       0.49401   0.89289   0.66804  -0.22293
C          C       0.11042   0.60244   0.66349  -0.22210
C          C       0.59812   0.48945   0.67846  -0.22003
C          C       0.50720   0.11088   0.67386  -0.22174
C          C       0.89157   0.39712   0.65899  -0.22449
C          C       0.32537   0.49799   0.64790   0.06774
C          C       0.50466   0.83234   0.63601   0.06757
C          C       0.17148   0.67475   0.64021   0.06686
C          C       0.67011   0.50147   0.64174   0.06981
C          C       0.49692   0.17222   0.64334   0.06798
C          C       0.83018   0.32573   0.63630   0.06853
C          C       0.30349   0.51342   0.55106  -0.13656
C          C       0.49032   0.79586   0.54460  -0.13770
C          C       0.20891   0.69843   0.54782  -0.13303
C          C       0.69298   0.48794   0.54870  -0.13732
C          C       0.51145   0.20982   0.54840  -0.13646
C          C       0.79276   0.30337   0.54595  -0.13642
C          C       0.26114   0.48757   0.51069  -0.08681
C          C       0.51714   0.78055   0.50659  -0.08545
C          C       0.22529   0.74137   0.51477  -0.08707
C          C       0.73528   0.51515   0.50795  -0.08455
C          C       0.48491   0.22596   0.50968  -0.08567
C          C       0.77681   0.26116   0.51152  -0.08728
C          C       0.23952   0.44561   0.56792  -0.09739
C          C       0.55899   0.80134   0.56018  -0.10075
C          C       0.20454   0.76157   0.57367  -0.09965
C          C       0.75570   0.55650   0.56064  -0.10158
C          C       0.44314   0.20484   0.56610  -0.09963
C          C       0.79784   0.24021   0.56841  -0.09733
C          C       0.26086   0.42967   0.66345  -0.09811
C          C       0.57389   0.83790   0.64974  -0.09644
C          C       0.16705   0.73836   0.66418  -0.09445
C          C       0.73328   0.57057   0.65202  -0.09600
C          C       0.42809   0.16726   0.65983  -0.09589
C          C       0.83518   0.26201   0.65802  -0.09615
C          C       0.30326   0.45550   0.70310  -0.12655
C          C       0.54707   0.85320   0.68742  -0.12668
C          C       0.15071   0.69542   0.69731  -0.12771
C          C       0.69095   0.54337   0.69220  -0.12878
C          C       0.45468   0.15116   0.69836  -0.12805
C          C       0.85118   0.30427   0.69177  -0.12688
C          C       0.39851   0.39722   0.80393  -0.18640
C          C       0.59070   0.99029   0.82167  -0.18660
C          C       0.99712   0.59356   0.80475  -0.18450
C          C       0.59545   0.59477   0.81213  -0.18544
C          C       0.39977   0.99588   0.80119  -0.18874
C          C       0.99262   0.39919   0.79428  -0.18971
C          C       0.37027   0.52412   0.69562   0.06391
C          C       0.47751   0.84973   0.68243   0.06416
C          C       0.15323   0.62937   0.68401   0.06332
C          C       0.62548   0.47379   0.69234   0.06219
C          C       0.52377   0.15373   0.68897   0.06509
C          C       0.84843   0.37050   0.67758   0.06657
N          N       0.45691   0.56760   0.30612  -0.34419
N          N       0.43142   0.88774   0.29680  -0.34553
N          N       0.11172   0.54320   0.30048  -0.34331
N          N       0.54446   0.43208   0.30430  -0.34498
N          N       0.56705   0.11101   0.30583  -0.34263
N          N       0.88822   0.45539   0.28754  -0.34510
N          N       0.45512   0.56668   0.81020  -0.34272
N          N       0.43312   0.88921   0.79630  -0.34221
N          N       0.11254   0.54337   0.79551  -0.34617
N          N       0.54144   0.42857   0.81889  -0.34393
N          N       0.56775   0.11182   0.80070  -0.34594
N          N       0.88962   0.45459   0.78471  -0.34216
O          O       0.41580   0.44017   0.19152  -0.19305
O          O       0.55876   0.97374   0.23347  -0.17098
O          O       0.02603   0.58490   0.21743  -0.17736
O          O       0.58661   0.55853   0.25047  -0.17304
O          O       0.43901   0.02526   0.20054  -0.18689
O          O       0.97404   0.41421   0.20850  -0.17050
O          O       0.41114   0.43952   0.75007  -0.17212
O          O       0.56231   0.97870   0.68207  -0.19494
O          O       0.02760   0.58389   0.74168  -0.17191
O          O       0.58341   0.55582   0.73458  -0.17565
O          O       0.44109   0.02704   0.74411  -0.17139
O          O       0.97792   0.41542   0.65881  -0.19226

