data_crystal

_audit_creation_method 'AiiDA-DDEC plugin'

_cell_length_a        27.35732
_cell_length_b        42.52810
_cell_length_c         8.23423

_cell_angle_alpha     68.25475
_cell_angle_beta     112.34476
_cell_angle_gamma     96.44893

_symmetry_space_group_name_Hall 'P 1'
_symmetry_space_group_name_H-M  'P 1'

loop_
_symmetry_equiv_pos_as_xyz
 'x,y,z'

loop_
_atom_site_label
_atom_site_type_symbol
_atom_site_fract_x
_atom_site_fract_y
_atom_site_fract_z
_atom_site_charge
H          H       0.49353   0.12881   0.36842   0.09895
H          H       0.52869   0.13610   0.11505   0.10657
H          H       0.98873   0.62658   0.35726   0.09927
H          H       0.02338   0.64332   0.06506   0.10993
H          H       0.50894   0.87198   0.15601   0.09725
H          H       0.47552   0.85760   0.40928   0.11202
H          H       0.00589   0.36985   0.15487   0.10031
H          H       0.96322   0.36555   0.42564   0.10391
H          H       0.43104   0.17482   0.27187   0.10870
H          H       0.59367   0.17897   0.17861   0.10972
H          H       0.92563   0.66904   0.30234   0.10757
H          H       0.08984   0.68521   0.13332   0.11054
H          H       0.57183   0.82890   0.21797   0.10913
H          H       0.41363   0.81542   0.31730   0.10890
H          H       0.06814   0.32421   0.24318   0.10818
H          H       0.89654   0.32333   0.36411   0.11193
H          H       0.30610   0.12400   0.41138   0.12584
H          H       0.68490   0.11336   0.16696   0.12308
H          H       0.80248   0.62668   0.42348   0.12460
H          H       0.17963   0.60512   0.16521   0.12502
H          H       0.70092   0.87418   0.07800   0.12631
H          H       0.32455   0.89101   0.34854   0.12313
H          H       0.19258   0.37259   0.10126   0.12492
H          H       0.80996   0.38904   0.35436   0.12389
H          H       0.37459   0.08102   0.49905   0.10564
H          H       0.61992   0.06811   0.13207   0.10461
H          H       0.86633   0.58336   0.48473   0.10699
H          H       0.11593   0.56319   0.06929   0.09561
H          H       0.63589   0.91547   0.03221   0.10647
H          H       0.38758   0.93470   0.42921   0.09420
H          H       0.12496   0.41568   0.02030   0.10411
H          H       0.87638   0.43345   0.38996   0.10445
H          H       0.21927   0.20121   0.35690   0.11367
H          H       0.76528   0.19051   0.14084   0.11512
H          H       0.73067   0.70646   0.34984   0.10813
H          H       0.24916   0.69310   0.23346   0.11650
H          H       0.77951   0.80523   0.05580   0.11738
H          H       0.24052   0.81254   0.34007   0.11653
H          H       0.27839   0.29853   0.13331   0.11350
H          H       0.75011   0.30573   0.29545   0.11523
H          H       0.36951   0.20107   0.23839   0.05953
H          H       0.66194   0.20590   0.23744   0.06183
H          H       0.86801   0.70464   0.20898   0.06167
H          H       0.13437   0.71844   0.28558   0.06514
H          H       0.63516   0.80115   0.25499   0.06018
H          H       0.34526   0.79037   0.25786   0.05885
H          H       0.12960   0.30015   0.25323   0.06046
H          H       0.86471   0.28749   0.20784   0.06504
H          H       0.34399   0.25179   0.24387   0.10245
H          H       0.69141   0.26248   0.18510   0.09992
H          H       0.84530   0.75796   0.17364   0.10376
H          H       0.16819   0.77358   0.25278   0.10780
H          H       0.66443   0.75309   0.23491   0.09899
H          H       0.31000   0.73709   0.32382   0.09540
H          H       0.15250   0.24677   0.25762   0.10282
H          H       0.83343   0.23047   0.24692   0.10979
H          H       0.48666   0.12912   0.85825   0.10000
H          H       0.52025   0.13888   0.60520   0.10755
H          H       0.98770   0.62572   0.85356   0.09653
H          H       0.01773   0.64379   0.59267   0.11121
H          H       0.51671   0.87790   0.63331   0.09744
H          H       0.48578   0.85698   0.92517   0.10980
H          H       0.01398   0.37340   0.62852   0.09603
H          H       0.97960   0.36026   0.89732   0.10921
H          H       0.42098   0.17324   0.75787   0.10943
H          H       0.58521   0.18299   0.63887   0.11234
H          H       0.92494   0.66959   0.78610   0.10864
H          H       0.07929   0.68553   0.69245   0.10961
H          H       0.58137   0.83762   0.67603   0.10608
H          H       0.42328   0.81408   0.84689   0.11066
H          H       0.07981   0.33069   0.70955   0.10936
H          H       0.91479   0.31641   0.85737   0.10900
H          H       0.31057   0.12841   0.92435   0.12438
H          H       0.68415   0.10571   0.71126   0.12229
H          H       0.80256   0.62734   0.93570   0.12384
H          H       0.17755   0.61026   0.66546   0.12203
H          H       0.69732   0.87699   0.54029   0.12556
H          H       0.31906   0.89378   0.81619   0.12352
H          H       0.19358   0.37409   0.55277   0.12570
H          H       0.82187   0.39111   0.79784   0.12108
H          H       0.37581   0.08377   0.00514   0.10729
H          H       0.61789   0.06222   0.64963   0.09843
H          H       0.86616   0.58379   0.99353   0.10846
H          H       0.11231   0.56734   0.58953   0.09185
H          H       0.63386   0.92061   0.47779   0.10994
H          H       0.38368   0.93636   0.90345   0.09358
H          H       0.13021   0.41948   0.47204   0.10859
H          H       0.89046   0.43359   0.85484   0.09428
H          H       0.23210   0.20570   0.87422   0.11330
H          H       0.75839   0.18665   0.73438   0.11572
H          H       0.72176   0.69757   0.93916   0.11592
H          H       0.27031   0.68772   0.65772   0.11658
H          H       0.77055   0.79540   0.63626   0.10955
H          H       0.25145   0.80643   0.75339   0.11617
H          H       0.26784   0.29565   0.60355   0.11586
H          H       0.72961   0.31494   0.83602   0.11559
H          H       0.35827   0.19855   0.71315   0.05981
H          H       0.62941   0.21819   0.77376   0.06381
H          H       0.86186   0.69702   0.75110   0.06218
H          H       0.15608   0.70781   0.72969   0.06169
H          H       0.63318   0.79772   0.80142   0.05930
H          H       0.37669   0.78243   0.70569   0.06295
H          H       0.13721   0.29865   0.79454   0.06010
H          H       0.85266   0.28388   0.79024   0.06085
H          H       0.33495   0.25031   0.70147   0.10423
H          H       0.66075   0.27499   0.73311   0.10846
H          H       0.83569   0.74803   0.75521   0.10133
H          H       0.18999   0.76282   0.66184   0.09664
H          H       0.65648   0.74530   0.81517   0.10274
H          H       0.34316   0.72680   0.73985   0.10726
H          H       0.16463   0.25075   0.77587   0.10593
H          H       0.81961   0.22943   0.84228   0.09990
C          C       0.47513   0.07313   0.26017  -0.05242
C          C       0.52947   0.07016   0.34196  -0.04940
C          C       0.97048   0.57653   0.20977  -0.05330
C          C       0.02488   0.57590   0.27924  -0.04937
C          C       0.52756   0.92446   0.28720  -0.05488
C          C       0.47300   0.92563   0.21412  -0.05133
C          C       0.02646   0.42675   0.25013  -0.05406
C          C       0.97205   0.42857   0.17582  -0.04430
C          C       0.43948   0.10187   0.19942   0.06637
C          C       0.56830   0.09594   0.37715   0.06999
C          C       0.93320   0.60210   0.17811   0.06173
C          C       0.06218   0.60215   0.32393   0.07451
C          C       0.56527   0.89946   0.31484   0.06037
C          C       0.43514   0.90027   0.16153   0.06907
C          C       0.06277   0.39877   0.30406   0.06767
C          C       0.93336   0.40231   0.14227   0.06903
C          C       0.45383   0.12863   0.26944  -0.11915
C          C       0.56296   0.12926   0.24526  -0.11101
C          C       0.94834   0.62695   0.26201  -0.12557
C          C       0.05689   0.63605   0.19756  -0.11218
C          C       0.54991   0.87306   0.24270  -0.12937
C          C       0.44160   0.86571   0.27821  -0.10887
C          C       0.04665   0.37095   0.24343  -0.12062
C          C       0.93387   0.37087   0.28505  -0.11298
C          C       0.41810   0.15458   0.21577  -0.17664
C          C       0.59982   0.15333   0.28146  -0.17085
C          C       0.91238   0.65119   0.22915  -0.17318
C          C       0.09399   0.65986   0.23844  -0.16563
C          C       0.58575   0.84838   0.27957  -0.17743
C          C       0.40611   0.84197   0.22712  -0.17325
C          C       0.08220   0.34510   0.29324  -0.17522
C          C       0.89638   0.34687   0.25001  -0.17041
C          C       0.36495   0.15436   0.09555   0.19822
C          C       0.64443   0.14506   0.45000   0.20312
C          C       0.85887   0.65145   0.11104   0.19604
C          C       0.13812   0.65117   0.40890   0.20260
C          C       0.63985   0.84918   0.39010   0.19958
C          C       0.36096   0.85175   0.05992   0.20582
C          C       0.13628   0.34603   0.40223   0.19803
C          C       0.85620   0.35364   0.07159   0.19957
C          C       0.35081   0.12815   0.02223  -0.14587
C          C       0.65042   0.11165   0.58023  -0.14217
C          C       0.84351   0.62648   0.02912  -0.14539
C          C       0.14385   0.61720   0.53350  -0.13731
C          C       0.65578   0.87625   0.45594  -0.14501
C          C       0.35353   0.88633   0.94605  -0.14088
C          C       0.15239   0.37349   0.46482  -0.14583
C          C       0.85366   0.38578   0.93268  -0.14181
C          C       0.38725   0.10280   0.07100  -0.12888
C          C       0.61333   0.08759   0.54406  -0.13147
C          C       0.87959   0.60221   0.06268  -0.12704
C          C       0.10712   0.59334   0.49061  -0.13499
C          C       0.61969   0.90082   0.41846  -0.12851
C          C       0.38960   0.90999  -0.00346  -0.13534
C          C       0.11658   0.39918   0.41661  -0.12740
C          C       0.89188   0.40940   0.96658  -0.12790
C          C       0.29238   0.22586   0.06460   0.06084
C          C       0.72141   0.22186   0.45395   0.05796
C          C       0.78772   0.72496   0.06285   0.06423
C          C       0.21442   0.72781   0.45027   0.05571
C          C       0.71313   0.77728   0.42890   0.05947
C          C       0.28384   0.77476   0.04514   0.05575
C          C       0.20616   0.27430   0.42420   0.06066
C          C       0.78578   0.27543   0.04490   0.05806
C          C       0.22936   0.22190   0.41007  -0.10443
C          C       0.75814   0.21782   0.07655  -0.10788
C          C       0.73877   0.72597   0.41133  -0.10604
C          C       0.24961   0.71792   0.12947  -0.11189
C          C       0.76772   0.78184   0.02901  -0.10046
C          C       0.24640   0.78518   0.40761  -0.10415
C          C       0.26875   0.27800   0.07934  -0.10544
C          C       0.75150   0.27967   0.39023  -0.11423
C          C       0.33254   0.20016   0.12286   0.07637
C          C       0.68557   0.19753   0.38849   0.06859
C          C       0.82821   0.69956   0.12257   0.06633
C          C       0.17185   0.70553   0.39317   0.05832
C          C       0.67247   0.80293   0.36694   0.07242
C          C       0.32036   0.79941   0.10691   0.07240
C          C       0.16663   0.30019   0.36948   0.07048
C          C       0.82621   0.29872   0.10080   0.06195
C          C       0.30519   0.25212   0.13781  -0.12909
C          C       0.71904   0.25562   0.32953  -0.12744
C          C       0.80384   0.75546   0.09548  -0.12894
C          C       0.20639   0.76333   0.36073  -0.12618
C          C       0.70226   0.75197   0.34846  -0.12777
C          C       0.28351   0.74238   0.17928  -0.12651
C          C       0.19258   0.24743   0.35512  -0.12867
C          C       0.79589   0.24013   0.13301  -0.13126
C          C       0.49961   0.01153   0.31195  -0.11921
C          C      -0.00070   0.51811   0.22491  -0.10917
C          C       0.49933   0.98200   0.28301  -0.11036
C          C      -0.00031   0.48810   0.20051  -0.11688
C          C       0.47424   0.07357   0.75468  -0.04702
C          C       0.52861   0.07251   0.83679  -0.05051
C          C       0.96982   0.57584   0.70119  -0.04942
C          C       0.02433   0.57455   0.77333  -0.05210
C          C       0.53312   0.92448   0.80540  -0.04820
C          C       0.47867   0.92543   0.72982  -0.05254
C          C       0.02601   0.42568   0.75413  -0.04394
C          C       0.97153   0.42707   0.67093  -0.05378
C          C       0.43605   0.10115   0.68942   0.06571
C          C       0.56512   0.09985   0.86465   0.07373
C          C       0.93269   0.60126   0.67274   0.05794
C          C       0.06188   0.60005   0.82407   0.06989
C          C       0.57062   0.89959   0.83160   0.05729
C          C       0.44245   0.89927   0.68046   0.07691
C          C       0.06410   0.39830   0.81498   0.06250
C          C       0.93397   0.40024   0.64464   0.07072
C          C       0.44770   0.12809   0.75740  -0.11992
C          C       0.55632   0.13302   0.72867  -0.11634
C          C       0.94745   0.62601   0.75738  -0.12625
C          C       0.05338   0.63504   0.71707  -0.10868
C          C       0.55654   0.87682   0.73401  -0.12471
C          C       0.45104   0.86461   0.79682  -0.11095
C          C       0.05270   0.37318   0.73368  -0.11840
C          C       0.94305   0.36664   0.77564  -0.11665
C          C       0.40996   0.15304   0.70099  -0.17242
C          C       0.59252   0.15817   0.75025  -0.16642
C          C       0.91168   0.65078   0.71941  -0.17436
C          C       0.08876   0.65863   0.77152  -0.17790
C          C       0.59315   0.85364   0.76034  -0.17532
C          C       0.41580   0.84034   0.75131  -0.16806
C          C       0.09024   0.34875   0.78123  -0.17407
C          C       0.90623   0.34184   0.75216  -0.16781
C          C       0.35756   0.15155   0.57885   0.19702
C          C       0.63943   0.15132   0.91069   0.19953
C          C       0.85840   0.65142   0.59861   0.19775
C          C       0.13584   0.64835   0.93176   0.20635
C          C       0.64598   0.85224   0.88597   0.20073
C          C       0.36973   0.84943   0.58694   0.20106
C          C       0.14203   0.34853   0.91271   0.19679
C          C       0.85808   0.34943   0.59603   0.19908
C          C       0.34588   0.12489   0.50917  -0.14491
C          C       0.64880   0.11823   0.04469  -0.13890
C          C       0.84305   0.62602   0.51941  -0.14461
C          C       0.14467   0.61341   0.03750  -0.14273
C          C       0.66055   0.87550   0.97941  -0.14700
C          C       0.36028   0.88402   0.47398  -0.13518
C          C       0.15339   0.37333   0.99573  -0.14288
C          C       0.84761   0.38329   0.47152  -0.13755
C          C       0.38432   0.10047   0.56157  -0.12618
C          C       0.61236   0.09313   0.02307  -0.13084
C          C       0.87918   0.60155   0.55590  -0.12660
C          C       0.10889   0.58995   0.98325  -0.13721
C          C       0.62375   0.89866   0.95263  -0.12773
C          C       0.39559   0.90826   0.52039  -0.13612
C          C       0.11546   0.39762   0.94852  -0.12713
C          C       0.88475   0.40798   0.49416  -0.13131
C          C       0.28135   0.22267   0.53591   0.05946
C          C       0.70893   0.23009   0.93228   0.05780
C          C       0.78758   0.72429   0.55899   0.06096
C          C       0.21475   0.72506   0.94273   0.05603
C          C       0.71404   0.77818   0.92868   0.06205
C          C       0.29632   0.77235   0.54536   0.05579
C          C       0.21715   0.27736   0.95057   0.06285
C          C       0.78802   0.27041   0.57624   0.05319
C          C       0.24131   0.22574   0.93221  -0.10123
C          C       0.75779   0.21262   0.63970  -0.11201
C          C       0.73406   0.72128   0.96236  -0.10157
C          C       0.26420   0.71505   0.58949  -0.10302
C          C       0.76248   0.77595   0.57435  -0.10605
C          C       0.24969   0.78185   0.85753  -0.11072
C          C       0.25811   0.27505   0.54948  -0.10315
C          C       0.73663   0.28767   0.90083  -0.10371
C          C       0.32200   0.19713   0.59690   0.07039
C          C       0.66840   0.20684   0.87648   0.05586
C          C       0.82664   0.69740   0.62772   0.07172
C          C       0.17829   0.70017   0.88236   0.06992
C          C       0.67409   0.80352   0.87534   0.06977
C          C       0.33866   0.79482   0.59971   0.05545
C          C       0.17580   0.30219   0.89651   0.07048
C          C       0.82357   0.29460   0.64571   0.06763
C          C       0.29490   0.24968   0.60389  -0.12477
C          C       0.69867   0.26540   0.84524  -0.13064
C          C       0.79863   0.74962   0.63882  -0.12794
C          C       0.21569   0.75737   0.80760  -0.12932
C          C       0.69798   0.74777   0.89456  -0.12611
C          C       0.30446   0.73687   0.63485  -0.12869
C          C       0.20420   0.25096   0.87787  -0.12923
C          C       0.79115   0.23642   0.69909  -0.12815
C          C       0.50350   0.01220   0.81957  -0.11785
C          C       0.99692   0.51727   0.71476  -0.10965
C          C       0.50443   0.98219   0.79595  -0.10978
C          C       0.99761   0.48696   0.69448  -0.12000
S          S       0.44248   0.03508   0.24849   0.07118
S          S       0.55789   0.02939   0.42072   0.08895
S          S       0.94037   0.54045   0.15894   0.08391
S          S       0.05665   0.53873   0.31718   0.11009
S          S       0.55789   0.95909   0.35327   0.08594
S          S       0.44183   0.96262   0.18151   0.10850
S          S       0.05754   0.46540   0.26164   0.06616
S          S       0.94196   0.46868   0.10152   0.09488
S          S       0.44464   0.03455   0.74929   0.07728
S          S       0.56006   0.03226   0.92160   0.08698
S          S       0.93881   0.54070   0.64193   0.08885
S          S       0.05488   0.53678   0.81302   0.10042
S          S       0.56292   0.95912   0.87060   0.09620
S          S       0.44710   0.96276   0.69124   0.10251
S          S       0.05622   0.46413   0.76929   0.08360
S          S       0.94113   0.46764   0.58730   0.08502
N          N       0.32497   0.17814   0.04154  -0.30974
N          N       0.68189   0.16771   0.50563  -0.29049
N          N       0.81843   0.67409   0.06608  -0.30794
N          N       0.17811   0.67279   0.46518  -0.28741
N          N       0.67990   0.82570   0.44286  -0.30516
N          N       0.32324   0.82974   0.99401  -0.28940
N          N       0.17529   0.32188   0.45346  -0.30552
N          N       0.81727   0.33124   0.02141  -0.28055
N          N       0.31598   0.17460   0.51953  -0.30367
N          N       0.67816   0.17434   0.95279  -0.28597
N          N       0.81952   0.67570   0.54503  -0.30185
N          N       0.17291   0.67052  -0.00140  -0.28675
N          N       0.68589   0.82975   0.92572  -0.30451
N          N       0.33097   0.82752   0.52793  -0.28671
N          N       0.18374   0.32582   0.96731  -0.30348
N          N       0.82082   0.32639   0.54152  -0.29650

