data_crystal

_audit_creation_method 'AiiDA-DDEC plugin'

_cell_length_a        25.07328
_cell_length_b        44.29440
_cell_length_c        10.83306

_cell_angle_alpha     136.03650
_cell_angle_beta     114.77898
_cell_angle_gamma     72.16513

_symmetry_space_group_name_Hall 'P 1'
_symmetry_space_group_name_H-M  'P 1'

loop_
_symmetry_equiv_pos_as_xyz
 'x,y,z'

loop_
_atom_site_label
_atom_site_type_symbol
_atom_site_fract_x
_atom_site_fract_y
_atom_site_fract_z
_atom_site_charge
H          H       0.46922   0.16436   0.50967   0.11496
H          H       0.40840   0.21750   0.48755   0.12246
H          H       0.32571   0.11803   0.43712   0.10847
H          H       0.37209   0.06244   0.45247   0.09601
H          H       0.21452   0.18269   0.32262   0.10692
H          H       0.16671   0.15156   0.46999   0.09373
H          H       0.09578   0.17572   0.44654   0.11738
H          H       0.12392   0.17742   0.14429   0.09875
H          H       0.26973   0.17273   0.51033   0.05174
H          H       0.96731   0.66221   0.49517   0.11493
H          H       0.90783   0.71379   0.46217   0.12394
H          H       0.80311   0.61734   0.45598   0.10567
H          H       0.85883   0.56237   0.46819   0.10311
H          H       0.73306   0.67547   0.27091   0.11131
H          H       0.68479   0.64230   0.43742   0.09578
H          H       0.61334   0.65836   0.36118   0.11738
H          H       0.64159   0.66776   0.08477   0.09891
H          H       0.80537   0.66147   0.43470   0.05672
H          H       0.48621   0.10316   0.09592   0.09741
H          H       0.54150   0.15307   0.15865   0.11176
H          H       0.68607   0.14761   0.04229   0.10829
H          H       0.63050   0.10544   0.49991   0.10520
H          H       0.80770   0.20687   0.08828   0.11702
H          H       0.89382   0.24557   0.32206   0.11086
H          H       0.95253   0.24283   0.26152   0.12404
H          H       0.90201   0.19847   0.09298   0.09238
H          H       0.72873   0.17023   0.97079   0.06281
H          H       0.98421   0.60054   0.08635   0.09694
H          H       0.03891   0.65122   0.15330   0.10913
H          H       0.18301   0.65278   0.04865   0.10851
H          H       0.12754   0.60369   0.49414   0.10479
H          H       0.30281   0.71251   0.09781   0.11676
H          H       0.38274   0.75157   0.33081   0.10983
H          H       0.44520   0.75323   0.29667   0.12638
H          H       0.39943   0.70593   0.11391   0.09326
H          H       0.22513   0.67543   0.98090   0.06591
H          H       0.53248   0.83821  -0.00245   0.11565
H          H       0.59154   0.78568   0.02484   0.12441
H          H       0.67353   0.88158   0.05655   0.10633
H          H       0.62720   0.93639   0.03815   0.09631
H          H       0.77056   0.81923   0.19451   0.10666
H          H       0.80899   0.85431   0.04596   0.09363
H          H       0.88023   0.83788   0.12132   0.11811
H          H       0.85793   0.83032   0.40252   0.09697
H          H       0.71937   0.83012   0.01228   0.04987
H          H       0.03669   0.33407   0.97863   0.11570
H          H       0.09364   0.28258   0.01494   0.12015
H          H       0.19986   0.38650   0.05337   0.10836
H          H       0.14276   0.43977   0.03105   0.10263
H          H       0.27628   0.32700   0.23835   0.11335
H          H       0.33071   0.35345   0.02368   0.09767
H          H       0.40025   0.33511   0.09703   0.11775
H          H       0.36880   0.33248   0.41753   0.09989
H          H       0.20137   0.34316   0.08155   0.05767
H          H       0.51425   0.89754   0.40117   0.09746
H          H       0.45734   0.84832   0.33661   0.10951
H          H       0.31196   0.85185   0.46640   0.10721
H          H       0.36834   0.90156   0.01827   0.10437
H          H       0.19309   0.79069   0.40821   0.11613
H          H       0.11103   0.75129   0.17209   0.10973
H          H       0.04933   0.75141   0.21463   0.12456
H          H       0.09679   0.79773   0.39254   0.09315
H          H       0.27077   0.82637   0.51970   0.06225
H          H       0.01670   0.39490   0.39367   0.10077
H          H       0.96281   0.34420   0.32905   0.11180
H          H       0.81827   0.34810   0.44782   0.10576
H          H       0.87048   0.39373   0.99566   0.10507
H          H       0.69812   0.29051   0.40622   0.11909
H          H       0.61443   0.25426   0.18190   0.11062
H          H       0.55359   0.25562   0.23107   0.12559
H          H       0.60344   0.30064   0.40782   0.09254
H          H       0.77658   0.32413   0.50894   0.06245
H          H       0.45649   0.16293   0.03942   0.11684
H          H       0.40856   0.21916   0.02549   0.12238
H          H       0.29886   0.11338   0.94855   0.10789
H          H       0.35865   0.06063   0.97054   0.10230
H          H       0.22101   0.17245   0.75525   0.11306
H          H       0.17819   0.15615   0.02952   0.09836
H          H       0.10829   0.17456   0.95878   0.11621
H          H       0.12533   0.17332   0.62112   0.10085
H          H       0.29774   0.15653   0.91483   0.05808
H          H       0.97076   0.66273   0.01415   0.11421
H          H       0.91463   0.71789   0.00066   0.12280
H          H       0.79821   0.60843   0.92783   0.10603
H          H       0.85722   0.55715   0.95987   0.10379
H          H       0.72111   0.66385   0.71929   0.10807
H          H       0.69849   0.65448   0.99198   0.09490
H          H       0.62684   0.67011   0.91429   0.11750
H          H       0.62802   0.65617   0.53167   0.09868
H          H       0.79582   0.65040   0.88698   0.05507
H          H       0.48154   0.10774   0.61463   0.10185
H          H       0.53761   0.15853   0.68725   0.11238
H          H       0.68556   0.15358   0.55583   0.10579
H          H       0.63002   0.09804   0.97563   0.10397
H          H       0.80782   0.20967   0.59439   0.11664
H          H       0.88984   0.24882   0.82686   0.11015
H          H       0.95186   0.24650   0.77909   0.12440
H          H       0.90307   0.20099   0.60614   0.09227
H          H       0.72923   0.17573   0.49072   0.06246
H          H       0.98310   0.60314   0.59177   0.09886
H          H       0.03626   0.65570   0.66589   0.11083
H          H       0.18212   0.65300   0.55504   0.10702
H          H       0.12957   0.60208   0.98256   0.10577
H          H       0.30332   0.71199   0.60700   0.11637
H          H       0.38721   0.75211   0.84636   0.11030
H          H       0.44769   0.75057   0.79517   0.12498
H          H       0.39921   0.70492   0.62278   0.09336
H          H       0.22548   0.67650   0.49626   0.06293
H          H       0.53597   0.83571   0.45786   0.11617
H          H       0.58502   0.77989   0.47369   0.12183
H          H       0.69922   0.89035   0.56744   0.10699
H          H       0.64065   0.94259   0.54057   0.10246
H          H       0.77109   0.83306   0.76827   0.10723
H          H       0.79595   0.84126   0.47256   0.09663
H          H       0.86618   0.82825   0.56922   0.11692
H          H       0.86543   0.83964   0.94929   0.09974
H          H       0.69924   0.84669   0.59947   0.05629
H          H       0.03694   0.33631   0.47948   0.11452
H          H       0.09364   0.28292   0.50420   0.12178
H          H       0.19277   0.38949   0.57101   0.10741
H          H       0.13717   0.44028   0.53461   0.09970
H          H       0.29355   0.32784   0.73440   0.10596
H          H       0.31381   0.34752   0.51995   0.09132
H          H       0.38497   0.32940   0.58592   0.11634
H          H       0.38603   0.33255   0.91317   0.09705
H          H       0.23164   0.34123   0.56563   0.04837
H          H       0.51643   0.89449   0.89416   0.10124
H          H       0.46158   0.84467   0.83141   0.11187
H          H       0.31179   0.85355   0.95901   0.10766
H          H       0.36686   0.90000   0.52173   0.10460
H          H       0.19033   0.79294   0.90905   0.11541
H          H       0.11051   0.75390   0.67385   0.11068
H          H       0.04829   0.75045   0.70291   0.12561
H          H       0.09310   0.79826   0.89089   0.09401
H          H       0.26786   0.82972   0.02371   0.06330
H          H       0.02018   0.39446   0.89303   0.09862
H          H       0.96610   0.34249   0.82024   0.11014
H          H       0.81614   0.34516   0.94058   0.10695
H          H       0.87233   0.39841   0.51297   0.10427
H          H       0.69626   0.29087   0.91711   0.11616
H          H       0.61631   0.24743   0.66548   0.11115
H          H       0.55381   0.25029   0.71250   0.12507
H          H       0.60285   0.29556   0.88486   0.09176
H          H       0.77396   0.32777   0.03599   0.06305
C          C       0.46062   0.07675   0.23996  -0.06090
C          C       0.41991   0.10848   0.23764   0.07150
C          C       0.43224   0.15326   0.38636  -0.10744
C          C       0.39889   0.18291   0.37417  -0.14513
C          C       0.35248   0.16896   0.21187   0.20457
C          C       0.33647   0.12474   0.07102  -0.18141
C          C       0.36976   0.09501   0.08398  -0.14158
C          C       0.27485   0.22206   0.03133   0.00201
C          C       0.23174   0.21460   0.41128  -0.24938
C          C       0.14270   0.18034   0.07784  -0.18196
C          C       0.30089   0.19058   0.04911   0.08787
C          C       0.29096   0.26650   0.17017   0.21092
C          C       0.95848   0.57430   0.23201  -0.06078
C          C       0.91793   0.60564   0.22621   0.07113
C          C       0.93048   0.65044   0.37073  -0.11096
C          C       0.89785   0.67926   0.35249  -0.14841
C          C       0.85164   0.66454   0.18870   0.20584
C          C       0.83546   0.62043   0.05193  -0.18683
C          C       0.86824   0.59153   0.07072  -0.14116
C          C       0.77106   0.71528  -0.00119   0.00465
C          C       0.74098   0.71025   0.37930  -0.25214
C          C       0.65998   0.67544   0.03383  -0.18191
C          C       0.79860   0.68462   0.02025   0.08672
C          C       0.78478   0.76016   0.13691   0.21760
C          C       0.51997   0.07439   0.26983  -0.04522
C          C       0.55396   0.10112   0.29562   0.06470
C          C       0.52939   0.11461   0.19812  -0.12148
C          C       0.55995   0.14222   0.23188  -0.16052
C          C       0.61702   0.15649   0.35848   0.19698
C          C       0.64256   0.14195   0.45193  -0.16455
C          C       0.61139   0.11481   0.42070  -0.12270
C          C       0.72253   0.22279   0.47556  -0.01677
C          C       0.78366   0.22514   0.04915  -0.27550
C          C       0.90670   0.23398   0.20822  -0.18454
C          C       0.69695   0.19288   0.45130   0.07178
C          C       0.69065   0.24665   0.42332   0.20353
C          C       0.01776   0.57165   0.26034  -0.04696
C          C       0.05169   0.59857   0.28682   0.06361
C          C       0.02718   0.61209   0.18960  -0.11924
C          C       0.05737   0.64035   0.22638  -0.16178
C          C       0.11386   0.65540   0.35599   0.19932
C          C       0.13949   0.64082   0.44915  -0.16542
C          C       0.10870   0.61293   0.41456  -0.12236
C          C       0.21816   0.72371   0.48159  -0.01710
C          C       0.27863   0.73022   0.05584  -0.27502
C          C       0.40005   0.74158   0.22775  -0.18341
C          C       0.19302   0.69322   0.45488   0.07220
C          C       0.18601   0.74687   0.42596   0.20131
C          C       0.54020   0.92606   0.26627  -0.05964
C          C       0.58063   0.89448   0.27090   0.06967
C          C       0.56867   0.84963   0.12276  -0.10843
C          C       0.60117   0.82026   0.13769  -0.14474
C          C       0.64668   0.83446   0.30196   0.20447
C          C       0.66237   0.87875   0.44293  -0.18698
C          C       0.62982   0.90818   0.42708  -0.14075
C          C       0.72482   0.78153   0.48346   0.00357
C          C       0.75923   0.78515   0.09272  -0.24588
C          C       0.83639   0.82175   0.44405  -0.18296
C          C       0.69764   0.81279   0.46507   0.08685
C          C       0.71340   0.73619   0.34048   0.21641
C          C       0.04063   0.42235   0.25131  -0.06069
C          C       0.08168   0.39104   0.25653   0.07319
C          C       0.07134   0.34603   0.10727  -0.11474
C          C       0.10260   0.31726   0.12717  -0.14140
C          C       0.14554   0.33206   0.29591   0.20142
C          C       0.15958   0.37672   0.43902  -0.18056
C          C       0.12832   0.40559   0.41899  -0.14018
C          C       0.23065   0.28022   0.47956   0.00563
C          C       0.26447   0.29292   0.13347  -0.25735
C          C       0.35068   0.32518   0.47037  -0.18134
C          C       0.20916   0.30958   0.45028   0.09064
C          C       0.20794   0.23828   0.36026   0.21672
C          C       0.48077   0.92892   0.23704  -0.04647
C          C       0.44595   0.90265   0.21152   0.06415
C          C       0.47037   0.88765   0.30300  -0.12013
C          C       0.43885   0.86030   0.26794  -0.16242
C          C       0.38102   0.84756   0.14586   0.20073
C          C       0.35546   0.86384   0.05945  -0.16542
C          C       0.38755   0.89087   0.09239  -0.12081
C          C       0.27622   0.78085   0.03013  -0.01539
C          C       0.21677   0.77343   0.45264  -0.27767
C          C       0.09484   0.76209   0.27882  -0.18492
C          C       0.30089   0.81162   0.05690   0.07137
C          C       0.30883   0.75708   0.08256   0.20069
C          C       0.98141   0.42465   0.22292  -0.04536
C          C       0.94787   0.39767   0.19723   0.06294
C          C       0.97332   0.38368   0.29276  -0.11822
C          C       0.94344   0.35563   0.25814  -0.16156
C          C       0.88603   0.34173   0.13424   0.19739
C          C       0.85945   0.35677   0.04293  -0.16794
C          C       0.89017   0.38413   0.07399  -0.12113
C          C       0.78184   0.27667   0.02905  -0.01971
C          C       0.72181   0.27226   0.44572  -0.27744
C          C       0.59949   0.26513   0.29098  -0.18538
C          C       0.80675   0.30758   0.05736   0.07551
C          C       0.81427   0.25178   0.07560   0.20366
C          C       0.49855   0.01568   0.24466  -0.11106
C          C       0.99646   0.51329   0.23736  -0.11096
C          C       0.50336   0.98668   0.25852  -0.11344
C          C       0.00190   0.48374   0.24863  -0.11386
C          C       0.45835   0.07583   0.74195  -0.05715
C          C       0.41892   0.10882   0.74526   0.06676
C          C       0.42726   0.15331   0.90840  -0.11688
C          C       0.40080   0.18473   0.90125  -0.14952
C          C       0.36434   0.17274   0.73129   0.20651
C          C       0.35232   0.12818   0.57096  -0.18433
C          C       0.37870   0.09678   0.57887  -0.13665
C          C       0.27838   0.22982   0.57453   0.00474
C          C       0.23232   0.20665   0.86135  -0.26028
C          C       0.13617   0.17756   0.54583  -0.18365
C          C       0.29865   0.20084   0.60602   0.09381
C          C       0.30150   0.27154   0.69304   0.21244
C          C       0.95977   0.57537   0.73451  -0.05989
C          C       0.92022   0.60836   0.73879   0.07117
C          C       0.93425   0.65278   0.89162  -0.10998
C          C       0.90353   0.68361   0.88433  -0.14705
C          C       0.85796   0.67135   0.72356   0.20676
C          C       0.84023   0.62745   0.57778  -0.18325
C          C       0.87101   0.59649   0.58550  -0.14051
C          C       0.78019   0.72683   0.55460   0.00146
C          C       0.73014   0.69843   0.82471  -0.26240
C          C       0.64661   0.66367   0.48049  -0.18341
C          C       0.80765   0.69519   0.57031   0.09030
C          C       0.79166   0.77218   0.69786   0.20638
C          C       0.51715   0.07215   0.76306  -0.05022
C          C       0.55132   0.09933   0.79168   0.06632
C          C       0.52592   0.11656   0.70932  -0.12006
C          C       0.55712   0.14484   0.74886  -0.15713
C          C       0.61562   0.15624   0.86609   0.19935
C          C       0.64192   0.13813   0.94471  -0.16714
C          C       0.61017   0.11022   0.90749  -0.12223
C          C       0.72191   0.22069   0.97444  -0.01608
C          C       0.78425   0.22718   0.55117  -0.27544
C          C       0.90604   0.23666   0.71746  -0.18482
C          C       0.69639   0.19023   0.94756   0.07328
C          C       0.68963   0.24506   0.92504   0.20117
C          C       0.01869   0.57195   0.75726  -0.04681
C          C       0.05223   0.59901   0.78358   0.06376
C          C       0.02649   0.61415   0.69272  -0.11990
C          C       0.05597   0.64327   0.73274  -0.15898
C          C       0.11322   0.65727   0.85793   0.19756
C          C       0.13998   0.64116   0.94485  -0.16569
C          C       0.10981   0.61254   0.90761  -0.12308
C          C       0.21717   0.72453   0.97600  -0.01828
C          C       0.27963   0.72946   0.56357  -0.27362
C          C       0.40207   0.74056   0.73581  -0.18458
C          C       0.19239   0.69380   0.94882   0.07057
C          C       0.18459   0.74787   0.92158   0.20127
C          C       0.53815   0.92323   0.75337  -0.05802
C          C       0.57723   0.88999   0.74863   0.07007
C          C       0.56703   0.84551   0.58763  -0.11573
C          C       0.59398   0.81430   0.59598  -0.14533
C          C       0.63220   0.82632   0.76473   0.20608
C          C       0.64559   0.87085   0.92248  -0.18182
C          C       0.61919   0.90202   0.91330  -0.13784
C          C       0.71751   0.76862   0.92033   0.00018
C          C       0.76355   0.79823   0.65966  -0.26065
C          C       0.84688   0.83258   0.00214  -0.18502
C          C       0.69502   0.79925   0.89798   0.09635
C          C       0.70216   0.72408   0.78440   0.21371
C          C       0.04302   0.42409   0.75696  -0.05947
C          C       0.08376   0.39206   0.75768   0.07106
C          C       0.07202   0.34730   0.60601  -0.10651
C          C       0.10329   0.31746   0.61927  -0.14343
C          C       0.14743   0.33116   0.78458   0.20590
C          C       0.16361   0.37538   0.92847  -0.18125
C          C       0.13204   0.40535   0.91520  -0.14003
C          C       0.22169   0.27758   0.96396   0.00103
C          C       0.27706   0.29558   0.64386  -0.25700
C          C       0.36645   0.32940   0.97739  -0.18260
C          C       0.19685   0.30915   0.94652   0.08853
C          C       0.20451   0.23342   0.82685   0.20585
C          C       0.47948   0.92716   0.73395  -0.04770
C          C       0.44598   0.90056   0.71022   0.06650
C          C       0.47216   0.88484   0.79875  -0.12285
C          C       0.44166   0.85728   0.76528  -0.15596
C          C       0.38325   0.84514   0.64804   0.19641
C          C       0.35621   0.86178   0.56328  -0.16603
C          C       0.38721   0.88895   0.59434  -0.12169
C          C       0.27828   0.77909   0.53399  -0.01551
C          C       0.21468   0.77518   0.95061  -0.27538
C          C       0.09317   0.76275   0.77447  -0.18616
C          C       0.30345   0.80913   0.55817   0.06749
C          C       0.31040   0.75600   0.59012   0.20250
C          C       0.98402   0.42694   0.73239  -0.04741
C          C       0.95060   0.39974   0.70553   0.06397
C          C       0.97645   0.38401   0.79402  -0.11883
C          C       0.94646   0.35520   0.75462  -0.15834
C          C       0.88879   0.34197   0.63207   0.19843
C          C       0.86190   0.35884   0.54833  -0.16633
C          C       0.89244   0.38720   0.58502  -0.12279
C          C       0.78360   0.27617   0.51893  -0.01695
C          C       0.72022   0.27216   0.95413  -0.27563
C          C       0.59971   0.25993   0.77466  -0.18523
C          C       0.80915   0.30595   0.54238   0.07434
C          C       0.81544   0.25260   0.57261   0.20265
C          C       0.49560   0.01417   0.74164  -0.11345
C          C       0.99787   0.51395   0.73683  -0.11056
C          C       0.50091   0.98527   0.75637  -0.11112
C          C       0.00383   0.48507   0.75215  -0.11410
S          S       0.43093   0.03888   0.20296   0.09196
S          S       0.92885   0.53731   0.20066   0.08573
S          S       0.55878   0.03384   0.26973   0.08490
S          S       0.05656   0.53116   0.26036   0.08619
S          S       0.57056   0.96312   0.29991   0.09250
S          S       0.06979   0.46006   0.28605   0.08849
S          S       0.44274   0.96949   0.23638   0.08514
S          S       0.94223   0.46554   0.22577   0.08384
S          S       0.42833   0.03881   0.70865   0.09540
S          S       0.93029   0.53852   0.70408   0.08966
S          S       0.55522   0.03033   0.75531   0.07776
S          S       0.05741   0.53096   0.75384   0.08274
S          S       0.56821   0.96041   0.78765   0.09529
S          S       0.07189   0.46169   0.79056   0.09061
S          S       0.44125   0.96890   0.74160   0.07907
S          S       0.94475   0.46801   0.73653   0.08215
N          N       0.32666   0.20106   0.20694  -0.28112
N          N       0.82535   0.69587   0.17953  -0.27920
N          N       0.64112   0.18557   0.38303  -0.28013
N          N       0.13740   0.68506   0.38286  -0.28186
N          N       0.67268   0.80248   0.30749  -0.28089
N          N       0.16738   0.30073   0.30690  -0.28750
N          N       0.35673   0.81810   0.11871  -0.27751
N          N       0.86258   0.31217   0.10822  -0.27690
N          N       0.34609   0.20571   0.73026  -0.28138
N          N       0.83342   0.70465   0.72584  -0.28207
N          N       0.64034   0.18594   0.89565  -0.27996
N          N       0.13652   0.68737   0.88676  -0.28048
N          N       0.65136   0.79275   0.76261  -0.29194
N          N       0.17119   0.29882   0.78906  -0.28396
N          N       0.35932   0.81609   0.62392  -0.27985
N          N       0.86512   0.31208   0.60385  -0.28306
O          O       0.33322   0.28084   0.33319  -0.14843
O          O       0.82409   0.77636   0.30582  -0.14502
O          O       0.63100   0.24331   0.35454  -0.14671
O          O       0.12660   0.74158   0.34836  -0.14901
O          O       0.67473   0.72040   0.17141  -0.14471
O          O       0.16308   0.22340   0.20070  -0.14643
O          O       0.36828   0.76198   0.15762  -0.14902
O          O       0.87389   0.25563   0.14461  -0.14872
O          O       0.34625   0.28623   0.85266  -0.14798
O          O       0.83125   0.78785   0.86634  -0.14815
O          O       0.63007   0.24049   0.84974  -0.15177
O          O       0.12535   0.74181   0.84169  -0.14760
O          O       0.66159   0.70853   0.61758  -0.14688
O          O       0.15967   0.21967   0.66839  -0.15163
O          O       0.36982   0.76102   0.66616  -0.14818
O          O       0.87507   0.25637   0.64392  -0.15036

