data_crystal

_audit_creation_method 'AiiDA-DDEC plugin'

_cell_length_a        25.90405
_cell_length_b        25.86078
_cell_length_c         8.78026

_cell_angle_alpha     90.50551
_cell_angle_beta     89.68812
_cell_angle_gamma     119.95658

_symmetry_space_group_name_Hall 'P 1'
_symmetry_space_group_name_H-M  'P 1'

loop_
_symmetry_equiv_pos_as_xyz
 'x,y,z'

loop_
_atom_site_label
_atom_site_type_symbol
_atom_site_fract_x
_atom_site_fract_y
_atom_site_fract_z
_atom_site_charge
H          H       0.24331   0.20380   0.27288   0.12755
H          H       0.81355   0.06112   0.38633   0.12666
H          H       0.95324   0.75450   0.30406   0.12736
H          H       0.13119   0.14721   0.27188   0.11271
H          H       0.86866   0.00455   0.40502   0.11654
H          H       0.01255   0.86684   0.31086   0.11282
H          H       0.13272   0.98225   0.25056   0.11074
H          H       0.00550   0.13268   0.11274   0.11394
H          H       0.85134   0.87288   0.25436   0.11311
H          H       0.24374   0.03789   0.24931   0.10819
H          H       0.94912   0.18684   0.08570   0.11251
H          H       0.79230   0.76168   0.24421   0.11009
H          H       0.53097   0.31834   0.31707   0.11354
H          H       0.68431   0.21203   0.30345   0.11355
H          H       0.79044   0.47354   0.31123   0.11485
H          H       0.42352   0.12104   0.06881   0.10685
H          H       0.88446   0.30879   0.07294   0.10984
H          H       0.69161   0.57511   0.08418   0.10719
H          H       0.53223   0.18212   0.03637   0.11497
H          H       0.82002   0.35253   0.03439   0.11468
H          H       0.64773   0.46661   0.04804   0.11469
H          H       0.33374   0.10241   0.14487   0.06495
H          H       0.90910   0.24257   0.19286   0.06577
H          H       0.76253   0.66673   0.15593   0.06251
H          H       0.60022   0.37629   0.16396   0.11388
H          H       0.62556   0.22427   0.15347   0.11354
H          H       0.77731   0.40172   0.15626   0.11391
H          H       0.24409   0.20031   0.79847   0.12632
H          H       0.80617   0.05362   0.82576   0.12860
H          H       0.94835   0.75835   0.87989   0.12651
H          H       0.13186   0.14602   0.79782   0.11287
H          H       0.85725   0.99230   0.81433   0.11668
H          H       0.00380   0.87055   0.87819   0.11424
H          H       0.12942   0.98104   0.71650   0.11332
H          H       0.01838   0.14705   0.66986   0.11375
H          H       0.86016   0.86810   0.63075   0.11290
H          H       0.24007   0.03426   0.71336   0.10852
H          H       0.96729   0.20718   0.67226   0.11122
H          H       0.80663   0.75705   0.62347   0.11053
H          H       0.52774   0.31965   0.81442   0.11267
H          H       0.68302   0.20974   0.80191   0.11282
H          H       0.78864   0.47039   0.82177   0.11246
H          H       0.42507   0.11538   0.60528   0.10766
H          H       0.88227   0.30982   0.56694   0.10763
H          H       0.69105   0.57681   0.61765   0.10991
H          H       0.53331   0.17841   0.56741   0.11659
H          H       0.81833   0.35481   0.54349   0.11575
H          H       0.64611   0.46871   0.57013   0.11654
H          H       0.33517   0.09517   0.68330   0.06000
H          H       0.89942   0.23457   0.61412   0.06353
H          H       0.75886   0.66634   0.73402   0.06227
H          H       0.59834   0.37560   0.67674   0.11288
H          H       0.62472   0.22420   0.66669   0.11250
H          H       0.77565   0.40182   0.66561   0.11326
C          C       0.21830   0.15536   0.26527  -0.14727
C          C       0.85557   0.07604   0.32705  -0.15116
C          C       0.93194   0.78132   0.29098  -0.14398
C          C       0.15651   0.12410   0.26507  -0.09336
C          C       0.88633   0.04502   0.33783  -0.10029
C          C       0.96451   0.84317   0.29519  -0.09374
C          C       0.12504   0.06132   0.25883  -0.00307
C          C       0.94081   0.06556   0.26103  -0.00329
C          C       0.93554   0.87660   0.28113  -0.00331
C          C       0.15735   0.03078   0.25316  -0.09042
C          C       0.96377   0.11776   0.17345  -0.09753
C          C       0.87313   0.84638   0.26339  -0.08979
C          C       0.21934   0.06204   0.25131  -0.18014
C          C       0.93253   0.14837   0.16015  -0.17828
C          C       0.84049   0.78440   0.25689  -0.17779
C          C       0.25088   0.12507   0.25561   0.21638
C          C       0.87810   0.12808   0.23804   0.20624
C          C       0.86964   0.75082   0.26907   0.21383
C          C       0.05927   0.02892   0.26175   0.37411
C          C       0.97256   0.03151   0.26744   0.37900
C          C       0.97013   0.94244   0.28160   0.37512
C          C       0.60522   0.29552   0.15754   0.07752
C          C       0.70619   0.31005   0.15287   0.07657
C          C       0.69156   0.39656   0.15958   0.07700
C          C       0.54005   0.25601   0.17202   0.07481
C          C       0.74616   0.28465   0.16396   0.07257
C          C       0.71621   0.46166   0.17605   0.07424
C          C       0.50726   0.27557   0.25903  -0.14663
C          C       0.72738   0.23211   0.24744  -0.14534
C          C       0.76905   0.49584   0.25886  -0.14647
C          C       0.44580   0.24177   0.27818  -0.11911
C          C       0.76273   0.20602   0.26694  -0.12392
C          C       0.79482   0.55725   0.27866  -0.11722
C          C       0.41378   0.18452   0.20756   0.05577
C          C       0.82066   0.23342   0.20194   0.06303
C          C       0.76703   0.58764   0.21457   0.05534
C          C       0.44734   0.16458   0.12433  -0.12588
C          C       0.84000   0.28717   0.12262  -0.12738
C          C       0.71323   0.55262   0.13525  -0.12831
C          C       0.50881   0.19895   0.10582  -0.12225
C          C       0.80379   0.31215   0.10158  -0.12114
C          C       0.68819   0.49130   0.11505  -0.12294
C          C       0.34890   0.14530   0.20444   0.06373
C          C       0.86154   0.20957   0.20823   0.05760
C          C       0.79099   0.65241   0.21361   0.06244
C          C       0.41770   0.26966   0.37714   0.70083
C          C       0.73542   0.14930   0.36113   0.70147
C          C       0.85286   0.58809   0.36733   0.70017
C          C       0.62976   0.35776   0.15899  -0.17999
C          C       0.64400   0.27237   0.15266  -0.17946
C          C       0.72929   0.37205   0.15461  -0.17984
C          C       0.21800   0.15236   0.77976  -0.14053
C          C       0.85219   0.07270   0.78855  -0.14353
C          C       0.92969   0.78312   0.82626  -0.14785
C          C       0.15620   0.12237   0.77925  -0.09452
C          C       0.88045   0.03913   0.78272  -0.09464
C          C       0.96015   0.84504   0.82567  -0.09813
C          C       0.12388   0.06025   0.75654   0.00241
C          C       0.94072   0.06605   0.74026  -0.00243
C          C       0.93505   0.87607   0.75588  -0.00166
C          C       0.15507   0.02911   0.73369  -0.09235
C          C       0.97165   0.12694   0.70137  -0.09274
C          C       0.87880   0.84367   0.68628  -0.09408
C          C       0.21700   0.05923   0.73227  -0.17345
C          C       0.94293   0.16021   0.70287  -0.17691
C          C       0.84865   0.78155   0.68430  -0.17770
C          C       0.24958   0.12167   0.75561   0.21186
C          C       0.88254   0.13336   0.74665   0.21120
C          C       0.87343   0.75032   0.75608   0.20953
C          C       0.05816   0.02853   0.75517   0.37509
C          C       0.97165   0.03124   0.74215   0.37611
C          C       0.96878   0.94189   0.75268   0.37804
C          C       0.60383   0.29504   0.67062   0.07667
C          C       0.70495   0.31020   0.66391   0.07619
C          C       0.68977   0.39626   0.67116   0.07649
C          C       0.53887   0.25488   0.68641   0.07217
C          C       0.74538   0.28547   0.67193   0.07421
C          C       0.71495   0.46130   0.68991   0.07194
C          C       0.50493   0.27518   0.76500  -0.14326
C          C       0.72667   0.23164   0.74903  -0.14509
C          C       0.76827   0.49403   0.77147  -0.14468
C          C       0.44356   0.24054   0.78498  -0.11847
C          C       0.76179   0.20513   0.76158  -0.11718
C          C       0.79514   0.55537   0.79497  -0.12147
C          C       0.41314   0.18130   0.72573   0.05981
C          C       0.81989   0.23382   0.69630   0.05575
C          C       0.76761   0.58689   0.73810   0.06254
C          C       0.44790   0.16057   0.65164  -0.12758
C          C       0.83850   0.28816   0.62048  -0.12890
C          C       0.71277   0.55330   0.66196  -0.12874
C          C       0.50908   0.19608   0.63026  -0.12453
C          C       0.80257   0.31376   0.60743  -0.12295
C          C       0.68718   0.49220   0.63542  -0.12234
C          C       0.34863   0.14053   0.72452   0.06057
C          C       0.86042   0.20975   0.68882   0.06484
C          C       0.79203   0.65176   0.74519   0.06077
C          C       0.41407   0.27095   0.86761   0.69906
C          C       0.73328   0.14521   0.84166   0.70057
C          C       0.85364   0.58393   0.88105   0.70031
C          C       0.62803   0.35726   0.67131  -0.17866
C          C       0.64286   0.27224   0.66545  -0.17900
C          C       0.72767   0.37203   0.66493  -0.17960
N          N       0.03223   0.06193   0.25185  -0.41343
N          N       0.93946   0.97196   0.28628  -0.41419
N          N       0.03009   0.96895   0.27347  -0.41063
N          N       0.31265   0.16126   0.25823  -0.25207
N          N       0.84195   0.15376   0.22969  -0.24292
N          N       0.84267   0.68891   0.26818  -0.25411
N          N       0.03163   0.06194   0.74685  -0.41102
N          N       0.93804   0.97110   0.74108  -0.41327
N          N       0.02869   0.96847   0.76182  -0.41072
N          N       0.31148   0.15798   0.75996  -0.25840
N          N       0.84857   0.16129   0.75711  -0.26111
N          N       0.84823   0.68833   0.75799  -0.24676
F          F       0.46093   0.31780   0.45890  -0.23545
F          F       0.68982   0.14571   0.45134  -0.23448
F          F       0.86457   0.54697   0.43598  -0.23580
F          F       0.37998   0.23161   0.48231  -0.20504
F          F       0.77358   0.14584   0.45976  -0.20664
F          F       0.85176   0.62255   0.48251  -0.20777
F          F       0.38817   0.29161   0.29599  -0.22171
F          F       0.71077   0.09889   0.27363  -0.21952
F          F       0.90081   0.62190   0.27605  -0.22261
F          F       0.45685   0.32214   0.94079  -0.23589
F          F       0.67728   0.13025   0.89656  -0.23615
F          F       0.85947   0.54157   0.96267  -0.23562
F          F       0.37510   0.23727   0.97763  -0.20811
F          F       0.76511   0.14545   0.96376  -0.21195
F          F       0.85945   0.62534   0.98520  -0.20534
F          F       0.38549   0.28916   0.77054  -0.22018
F          F       0.72395   0.09899   0.74813  -0.21949
F          F       0.90128   0.60941   0.78509  -0.22015

