data_crystal

_audit_creation_method 'AiiDA-DDEC plugin'

_cell_length_a        26.10389
_cell_length_b        26.22974
_cell_length_c         8.99974

_cell_angle_alpha     90.76647
_cell_angle_beta     89.99363
_cell_angle_gamma     120.67084

_symmetry_space_group_name_Hall 'P 1'
_symmetry_space_group_name_H-M  'P 1'

loop_
_symmetry_equiv_pos_as_xyz
 'x,y,z'

loop_
_atom_site_label
_atom_site_type_symbol
_atom_site_fract_x
_atom_site_fract_y
_atom_site_fract_z
_atom_site_charge
H          H       0.24901   0.18775   0.43527   0.12819
H          H       0.81071   0.05930   0.42278   0.12814
H          H       0.94112   0.75730   0.43120   0.12824
H          H       0.13790   0.13355   0.43695   0.10898
H          H       0.86799   0.00721   0.43545   0.10873
H          H       0.99423   0.86775   0.44036   0.11238
H          H       0.13404   0.00536   0.12670   0.10906
H          H       0.99581   0.13266   0.13056   0.10843
H          H       0.86507   0.86338   0.13511   0.11230
H          H       0.24398   0.05855   0.12739   0.11319
H          H       0.94045   0.18590   0.12412   0.11334
H          H       0.81200   0.75410   0.12857   0.11226
H          H       0.05605   0.11183   0.28175   0.10651
H          H       0.88856   0.94726   0.28843   0.10713
H          H       0.05275   0.94631   0.28443   0.10584
H          H       0.53251   0.31784   0.35184   0.11342
H          H       0.68241   0.21306   0.35080   0.11266
H          H       0.78911   0.47245   0.35795   0.11387
H          H       0.42536   0.11757   0.12621   0.10834
H          H       0.88217   0.30601   0.12901   0.10920
H          H       0.69728   0.57254   0.10751   0.10729
H          H       0.53326   0.18135   0.08457   0.11558
H          H       0.82014   0.35086   0.09045   0.11530
H          H       0.65337   0.46480   0.07242   0.11482
H          H       0.33561   0.09520   0.22578   0.06136
H          H       0.90427   0.23976   0.24136   0.06164
H          H       0.76071   0.66271   0.22006   0.06150
H          H       0.60225   0.37542   0.19941   0.11444
H          H       0.62544   0.22456   0.20010   0.11359
H          H       0.77851   0.40088   0.20162   0.11328
H          H       0.24749   0.18584   0.91886   0.12810
H          H       0.81399   0.06366   0.89600   0.12978
H          H       0.93641   0.75752   0.92900   0.12886
H          H       0.13647   0.13125   0.91697   0.11035
H          H       0.86823   0.00842   0.90616   0.11140
H          H       0.99043   0.86784   0.92835   0.11001
H          H       0.13465   0.00075   0.61847   0.10870
H          H       0.00179   0.13660   0.61634   0.10792
H          H       0.86126   0.86082   0.61844   0.10963
H          H       0.24454   0.05424   0.62339   0.11263
H          H       0.94937   0.19257   0.61218   0.10997
H          H       0.80648   0.75141   0.62430   0.11161
H          H       0.05803   0.11065   0.76110   0.10597
H          H       0.88805   0.94873   0.76317   0.10657
H          H       0.04960   0.94275   0.76938   0.10644
H          H       0.53210   0.31458   0.85473   0.11336
H          H       0.68712   0.21542   0.84616   0.11362
H          H       0.79131   0.47357   0.84811   0.11383
H          H       0.42578   0.11493   0.62617   0.10805
H          H       0.88339   0.30996   0.60547   0.10785
H          H       0.68537   0.56859   0.64747   0.10881
H          H       0.53376   0.17893   0.58611   0.11589
H          H       0.81927   0.35294   0.57425   0.11531
H          H       0.64388   0.46164   0.60492   0.11579
H          H       0.33551   0.09248   0.72539   0.06194
H          H       0.90858   0.24537   0.70859   0.06235
H          H       0.75302   0.66043   0.74519   0.06260
H          H       0.59974   0.37235   0.70715   0.11286
H          H       0.62730   0.22425   0.69196   0.11437
H          H       0.77766   0.40206   0.70171   0.11436
C          C       0.22297   0.14747   0.36919  -0.14184
C          C       0.85155   0.07490   0.36017  -0.14428
C          C       0.92507   0.78138   0.36746  -0.14047
C          C       0.16110   0.11729   0.36859  -0.13055
C          C       0.88343   0.04574   0.36536  -0.12893
C          C       0.95464   0.84292   0.37110  -0.13444
C          C       0.12784   0.06493   0.28365   0.05916
C          C       0.93627   0.06615   0.28398   0.05516
C          C       0.93340   0.87367   0.28864   0.05872
C          C       0.15899   0.04416   0.19849  -0.12866
C          C       0.95644   0.11759   0.19901  -0.12713
C          C       0.88081   0.84032   0.20411  -0.13178
C          C       0.22095   0.07398   0.19916  -0.17328
C          C       0.92530   0.14770   0.19532  -0.17637
C          C       0.85075   0.77862   0.20068  -0.17192
C          C       0.25399   0.12592   0.28627   0.19609
C          C       0.87230   0.12678   0.27665   0.19616
C          C       0.87246   0.74812   0.28293   0.19413
C          C       0.06201   0.03280   0.28351   0.07682
C          C       0.96857   0.03342   0.28499   0.07874
C          C       0.96672   0.93918   0.28719   0.07773
C          C       0.03107   0.06362   0.28339  -0.18786
C          C       0.93700   0.97116   0.28711  -0.18829
C          C       0.02923   0.97063   0.28499  -0.18764
C          C       0.60619   0.29519   0.19836   0.07715
C          C       0.70660   0.30979   0.19993   0.07562
C          C       0.69327   0.39559   0.19812   0.07679
C          C       0.54115   0.25532   0.21370   0.07224
C          C       0.74552   0.28443   0.21535   0.07162
C          C       0.71888   0.46046   0.21063   0.07296
C          C       0.50874   0.27448   0.29845  -0.14268
C          C       0.72548   0.23254   0.29738  -0.14096
C          C       0.76998   0.49469   0.29887  -0.14450
C          C       0.44761   0.23959   0.32023  -0.12311
C          C       0.75949   0.20599   0.31733  -0.12380
C          C       0.79559   0.55573   0.31906  -0.12312
C          C       0.41595   0.18149   0.25689   0.06058
C          C       0.81725   0.23212   0.25499   0.05959
C          C       0.76960   0.58533   0.24819   0.05900
C          C       0.44912   0.16182   0.17625  -0.13068
C          C       0.83797   0.28545   0.17772  -0.12985
C          C       0.71747   0.55040   0.16307  -0.12878
C          C       0.51007   0.19771   0.15274  -0.12287
C          C       0.80309   0.31093   0.15604  -0.12181
C          C       0.69258   0.48955   0.14305  -0.12190
C          C       0.35119   0.14145   0.25948   0.05696
C          C       0.85668   0.20749   0.25887   0.05895
C          C       0.79305   0.64944   0.25137   0.05926
C          C       0.41912   0.26703   0.41378   0.70167
C          C       0.73128   0.15025   0.40940   0.70054
C          C       0.84951   0.58609   0.42214   0.70105
C          C       0.63132   0.35701   0.19678  -0.18115
C          C       0.64440   0.27232   0.19757  -0.18092
C          C       0.73043   0.37135   0.19841  -0.18061
C          C       0.22194   0.14502   0.85435  -0.14156
C          C       0.85544   0.07905   0.83624  -0.14392
C          C       0.92039   0.78096   0.86256  -0.14583
C          C       0.16007   0.11454   0.85187  -0.13119
C          C       0.88563   0.04821   0.83998  -0.13103
C          C       0.95056   0.84245   0.86035  -0.12973
C          C       0.12730   0.06158   0.76868   0.05828
C          C       0.93908   0.06834   0.76158   0.05796
C          C       0.92990   0.87261   0.77323   0.05621
C          C       0.15907   0.04016   0.68862  -0.12740
C          C       0.96171   0.12144   0.68201  -0.12677
C          C       0.87678   0.83854   0.69107  -0.12752
C          C       0.22107   0.07026   0.69148  -0.17298
C          C       0.93213   0.15310   0.67961  -0.16984
C          C       0.84572   0.77678   0.69447  -0.17458
C          C       0.25357   0.12319   0.77544   0.19545
C          C       0.87824   0.13222   0.75714   0.19557
C          C       0.86719   0.74700   0.78066   0.19737
C          C       0.06148   0.03029   0.76472   0.07790
C          C       0.96954   0.03381   0.76151   0.07798
C          C       0.96466   0.93811   0.76672   0.07827
C          C       0.03194   0.06247   0.76198  -0.18813
C          C       0.93647   0.97153   0.76327  -0.18707
C          C       0.02724   0.96817   0.76664  -0.18794
C          C       0.60593   0.29351   0.69856   0.07671
C          C       0.70715   0.31053   0.69508   0.07686
C          C       0.69146   0.39491   0.70338   0.07684
C          C       0.54108   0.25292   0.71393   0.07409
C          C       0.74731   0.28639   0.70565   0.07147
C          C       0.71534   0.45934   0.72103   0.07191
C          C       0.50846   0.27164   0.79917  -0.14458
C          C       0.72940   0.23509   0.78874  -0.14159
C          C       0.76893   0.49466   0.79932  -0.14156
C          C       0.44733   0.23659   0.81993  -0.12427
C          C       0.76457   0.20959   0.80499  -0.12477
C          C       0.79395   0.55557   0.82020  -0.11983
C          C       0.41578   0.17888   0.75493   0.06058
C          C       0.82143   0.23634   0.73680   0.05988
C          C       0.76411   0.58384   0.76339   0.05858
C          C       0.44929   0.15926   0.67571  -0.12807
C          C       0.83995   0.28904   0.65834  -0.13046
C          C       0.70899   0.54765   0.69088  -0.13057
C          C       0.51030   0.19526   0.65327  -0.12304
C          C       0.80393   0.31351   0.64093  -0.12186
C          C       0.68528   0.48712   0.66743  -0.12165
C          C       0.35099   0.13904   0.75535   0.05730
C          C       0.86189   0.21289   0.73547   0.05640
C          C       0.78669   0.64783   0.76620   0.05595
C          C       0.41942   0.26370   0.91624   0.70224
C          C       0.73898   0.15491   0.90119   0.69880
C          C       0.85330   0.58740   0.90239   0.70022
C          C       0.62979   0.35513   0.70157  -0.18212
C          C       0.64514   0.27187   0.69309  -0.18048
C          C       0.72970   0.37189   0.69847  -0.18056
N          N       0.31592   0.16052   0.29241  -0.25172
N          N       0.83632   0.15193   0.27716  -0.24933
N          N       0.84777   0.68674   0.28414  -0.25302
N          N       0.31553   0.15843   0.78266  -0.25271
N          N       0.84282   0.15794   0.75990  -0.25284
N          N       0.84225   0.68575   0.78639  -0.24814
F          F       0.46266   0.31026   0.00044  -0.23317
F          F       0.69499   0.15234   0.99232  -0.23237
F          F       0.86259   0.54735   0.97813  -0.23368
F          F       0.38254   0.23010   0.51951  -0.20990
F          F       0.76984   0.14732   0.50442  -0.20566
F          F       0.84756   0.62516   0.51861  -0.20703
F          F       0.38762   0.28526   0.33255  -0.22221
F          F       0.70489   0.09968   0.32493  -0.22271
F          F       0.90226   0.61474   0.34804  -0.22303
F          F       0.46225   0.31726   0.48877  -0.23644
F          F       0.68626   0.14742   0.49649  -0.23503
F          F       0.85266   0.54496   0.51037  -0.23381
F          F       0.37986   0.22516   0.01502  -0.20776
F          F       0.77994   0.15488   0.99351  -0.20661
F          F       0.85758   0.62729   0.00700  -0.21031
F          F       0.39238   0.28740   0.83666  -0.22326
F          F       0.71259   0.10282   0.82195  -0.22327
F          F       0.90011   0.61516   0.80764  -0.22239

