data_crystal

_audit_creation_method 'AiiDA-DDEC plugin'

_cell_length_a        25.74474
_cell_length_b        25.86151
_cell_length_c         7.87903

_cell_angle_alpha     92.34786
_cell_angle_beta     88.56649
_cell_angle_gamma     120.25018

_symmetry_space_group_name_Hall 'P 1'
_symmetry_space_group_name_H-M  'P 1'

loop_
_symmetry_equiv_pos_as_xyz
 'x,y,z'

loop_
_atom_site_label
_atom_site_type_symbol
_atom_site_fract_x
_atom_site_fract_y
_atom_site_fract_z
_atom_site_charge
H          H       0.13416   0.98963   0.16784   0.11265
H          H       0.01634   0.14838   0.17819   0.11061
H          H       0.85279   0.86658   0.16677   0.11159
H          H       0.24647   0.04613   0.19290   0.12249
H          H       0.96175   0.20594   0.20295   0.12226
H          H       0.79692   0.75516   0.19662   0.12283
H          H       0.24157   0.20510   0.34647   0.10785
H          H       0.79588   0.04165   0.28270   0.10832
H          H       0.95984   0.76375   0.35442   0.11060
H          H       0.12970   0.14844   0.31825   0.11202
H          H       0.85087   0.98487   0.25691   0.11191
H          H       0.01520   0.87476   0.32140   0.11211
H          H       0.33318   0.23903   0.18254   0.07905
H          H       0.76897   0.10209   0.12945   0.07949
H          H       0.90294   0.67159   0.16997   0.07864
H          H       0.51843   0.20366   0.38107   0.13775
H          H       0.79981   0.31768   0.39950   0.13654
H          H       0.68983   0.48598   0.42689   0.13508
H          H       0.54529   0.36594   0.16058   0.11244
H          H       0.64351   0.18764   0.11553   0.11314
H          H       0.82145   0.46058   0.14142   0.11292
H          H       0.43556   0.32234   0.14704   0.10532
H          H       0.68709   0.12175   0.08765   0.10453
H          H       0.88614   0.57011   0.12484   0.10464
H          H       0.60088   0.22714   0.26133   0.10524
H          H       0.77999   0.37854   0.27916   0.10629
H          H       0.62882   0.40562   0.28425   0.10565
H          H       0.36058   0.13887   0.34975   0.30070
H          H       0.86526   0.22561   0.34447   0.30019
H          H       0.77740   0.64286   0.38378   0.30421
H          H       0.12840   0.97838   0.65875   0.11139
H          H       0.01836   0.14579   0.65908   0.11057
H          H       0.84910   0.86241   0.63581   0.11068
H          H       0.24008   0.03023   0.69906   0.12197
H          H       0.96607   0.20536   0.68890   0.12159
H          H       0.79014   0.75152   0.67362   0.12286
H          H       0.24081   0.19182   0.85443   0.10919
H          H       0.79891   0.04356   0.77968   0.10768
H          H       0.94912   0.75693   0.85311   0.10816
H          H       0.12969   0.14007   0.80932   0.11271
H          H       0.85176   0.98472   0.74884   0.11127
H          H       0.00758   0.86743   0.81331   0.11290
H          H       0.32834   0.21565   0.65686   0.07475
H          H       0.77562   0.10574   0.61552   0.07467
H          H       0.89304   0.66614   0.66545   0.07467
H          H       0.51855   0.20319   0.93124   0.13189
H          H       0.79656   0.31415   0.91217   0.13643
H          H       0.68164   0.47967   0.92824   0.13363
H          H       0.53838   0.34683   0.62454   0.11321
H          H       0.64651   0.18643   0.60445   0.11220
H          H       0.81394   0.45659   0.63882   0.11317
H          H       0.42793   0.29815   0.60557   0.10146
H          H       0.69340   0.12346   0.57102   0.10328
H          H       0.87697   0.56637   0.62022   0.10360
H          H       0.59925   0.22060   0.76998   0.10844
H          H       0.77636   0.37546   0.77866   0.10670
H          H       0.62092   0.39648   0.78730   0.10776
H          H       0.35927   0.13007   0.89539   0.30435
H          H       0.86673   0.22641   0.85587   0.30353
H          H       0.76901   0.63763   0.88234   0.30415
C          C       0.05901   0.03212   0.23038   0.37802
C          C       0.96997   0.03054   0.21461   0.37805
C          C       0.97068   0.94300   0.22669   0.37656
C          C       0.12520   0.06589   0.23987  -0.00809
C          C       0.93679   0.06317   0.21446  -0.00859
C          C       0.93789   0.87725   0.23801  -0.00791
C          C       0.15822   0.03684   0.20563  -0.08541
C          C       0.96804   0.12568   0.19868  -0.08441
C          C       0.87588   0.84342   0.20454  -0.08495
C          C       0.22035   0.06799   0.21975  -0.16358
C          C       0.93794   0.15748   0.21277  -0.16697
C          C       0.84484   0.78182   0.22205  -0.16931
C          C       0.25132   0.12922   0.26737   0.21590
C          C       0.87538   0.12732   0.23982   0.21945
C          C       0.87500   0.75222   0.27170   0.21678
C          C       0.21835   0.15838   0.30297  -0.18901
C          C       0.84384   0.06470   0.25481  -0.18934
C          C       0.93692   0.78597   0.30734  -0.18902
C          C       0.15600   0.12695   0.28857  -0.08527
C          C       0.87432   0.03306   0.24192  -0.08274
C          C       0.96776   0.84776   0.29020  -0.08606
C          C       0.35021   0.21208   0.23755   0.08364
C          C       0.79453   0.14479   0.20107   0.08413
C          C       0.85993   0.65436   0.23825   0.08647
C          C       0.41419   0.23817   0.25277  -0.09632
C          C       0.76821   0.18206   0.22460  -0.09590
C          C       0.82423   0.59075   0.25938  -0.09964
C          C       0.43904   0.20464   0.31836   0.31907
C          C       0.80040   0.23901   0.31137   0.31924
C          C       0.76758   0.56558   0.34517   0.31677
C          C       0.50159   0.23022   0.32621  -0.25957
C          C       0.77459   0.27540   0.32879  -0.26294
C          C       0.73192   0.50340   0.35670  -0.25998
C          C       0.54068   0.28799   0.27031   0.09958
C          C       0.71817   0.25746   0.26046   0.10046
C          C       0.75003   0.46502   0.28219   0.10033
C          C       0.51589   0.32141   0.20760  -0.17565
C          C       0.68624   0.20095   0.17510  -0.17739
C          C       0.80697   0.48985   0.20143  -0.17521
C          C       0.45417   0.29675   0.19898  -0.10154
C          C       0.71110   0.16444   0.15765  -0.09985
C          C       0.84296   0.55138   0.19051  -0.10009
C          C       0.60661   0.31321   0.27558   0.07475
C          C       0.69319   0.29791   0.27191   0.07562
C          C       0.70905   0.39948   0.28347   0.07522
C          C       0.63097   0.27529   0.26976  -0.17090
C          C       0.73163   0.36022   0.27956  -0.17155
C          C       0.64646   0.37528   0.28260  -0.17144
C          C       0.05654   0.02467   0.71375   0.37894
C          C       0.96942   0.02694   0.69835   0.37780
C          C       0.96647   0.93746   0.70822   0.37773
C          C       0.12244   0.05621   0.73017  -0.01115
C          C       0.93805   0.06149   0.70120  -0.01021
C          C       0.93204   0.87175   0.72176  -0.00980
C          C       0.15375   0.02519   0.70031  -0.08685
C          C       0.97031   0.12398   0.68401  -0.08444
C          C       0.87045   0.83875   0.68286  -0.08556
C          C       0.21548   0.05376   0.72365  -0.17260
C          C       0.94144   0.15701   0.70124  -0.16877
C          C       0.83774   0.77726   0.70411  -0.17052
C          C       0.24759   0.11451   0.77589   0.21980
C          C       0.87918   0.12832   0.73341   0.21935
C          C       0.86601   0.74700   0.76315   0.21587
C          C       0.21631   0.14556   0.80717  -0.18885
C          C       0.84666   0.06571   0.74907  -0.18765
C          C       0.92767   0.77992   0.80178  -0.18719
C          C       0.15444   0.11672   0.78371  -0.08561
C          C       0.87588   0.03287   0.73304  -0.08401
C          C       0.96017   0.84148   0.78105  -0.08764
C          C       0.34601   0.19377   0.73499   0.09461
C          C       0.79975   0.14716   0.69361   0.08985
C          C       0.85034   0.64912   0.73542   0.09207
C          C       0.41006   0.22309   0.75600  -0.09945
C          C       0.77180   0.18293   0.71996  -0.09669
C          C       0.81536   0.58565   0.75966  -0.09852
C          C       0.43666   0.19605   0.84807   0.31473
C          C       0.80100   0.23804   0.81662   0.31493
C          C       0.75913   0.56011   0.84735   0.31678
C          C       0.49942   0.22418   0.85804  -0.26233
C          C       0.77372   0.27310   0.83476  -0.26311
C          C       0.72401   0.49772   0.85914  -0.26251
C          C       0.53648   0.27843   0.77917   0.09972
C          C       0.71813   0.25499   0.76032   0.10034
C          C       0.74293   0.45989   0.78435   0.10189
C          C       0.51006   0.30592   0.69159  -0.17782
C          C       0.68873   0.19984   0.66727  -0.17617
C          C       0.79951   0.48544   0.70176  -0.17859
C          C       0.44814   0.27827   0.67966  -0.09644
C          C       0.71539   0.16499   0.64723  -0.09958
C          C       0.83456   0.54695   0.68983  -0.09734
C          C       0.60258   0.30553   0.78225   0.07613
C          C       0.69106   0.29365   0.77452   0.07523
C          C       0.70347   0.39404   0.78580   0.07510
C          C       0.62847   0.26897   0.77622  -0.17508
C          C       0.72784   0.35619   0.78080  -0.17315
C          C       0.64063   0.36787   0.78615  -0.17278
N          N       0.03048   0.06354   0.22191  -0.41676
N          N       0.93802   0.97022   0.21375  -0.41501
N          N       0.03124   0.97192   0.23434  -0.41582
N          N       0.31385   0.15707   0.28204  -0.28952
N          N       0.84828   0.16238   0.25817  -0.28914
N          N       0.84072   0.69024   0.29163  -0.29016
N          N       0.03001   0.05801   0.70521  -0.41695
N          N       0.93563   0.96662   0.69734  -0.41634
N          N       0.02688   0.96436   0.71505  -0.41723
N          N       0.30990   0.14175   0.79910  -0.29483
N          N       0.85274   0.16406   0.75533  -0.29355
N          N       0.83120   0.68518   0.78756  -0.29008
O          O       0.40388   0.14901   0.37402  -0.41535
O          O       0.85508   0.25860   0.37633  -0.41772
O          O       0.74703   0.60004   0.41613  -0.41753
O          O       0.40280   0.14364   0.92466  -0.41751
O          O       0.85438   0.25728   0.89110  -0.41644
O          O       0.73883   0.59491   0.91738  -0.41787

