data_crystal

_audit_creation_method 'AiiDA-DDEC plugin'

_cell_length_a        42.74253
_cell_length_b        42.76030
_cell_length_c         8.17953

_cell_angle_alpha     61.90195
_cell_angle_beta     114.53925
_cell_angle_gamma     119.92714

_symmetry_space_group_name_Hall 'P 1'
_symmetry_space_group_name_H-M  'P 1'

loop_
_symmetry_equiv_pos_as_xyz
 'x,y,z'

loop_
_atom_site_label
_atom_site_type_symbol
_atom_site_fract_x
_atom_site_fract_y
_atom_site_fract_z
_atom_site_charge
H          H       0.29604   0.59784   0.98084   0.10029
H          H       0.39542   0.69869   0.93627   0.10348
H          H       0.30209   0.69686   0.02448   0.09804
H          H       0.70785   0.39452   0.04100   0.09708
H          H       0.60011   0.30481   0.02167   0.09839
H          H       0.68956   0.29280   0.97505   0.09764
H          H       0.58027   0.33687   0.02065   0.10554
H          H       0.65911   0.24096   0.98743   0.10367
H          H       0.75319   0.41991   0.95031   0.10416
H          H       0.55649   0.37986   0.01034   0.11425
H          H       0.61798   0.17532   0.98677   0.11753
H          H       0.81974   0.44496   0.96134   0.12056
H          H       0.66489   0.46929   0.00934   0.10211
H          H       0.52763   0.19099   0.00240   0.10599
H          H       0.80925   0.33282   0.05513   0.10601
H          H       0.68848   0.42754   0.01772   0.09856
H          H       0.56783   0.25536   0.00532   0.10290
H          H       0.74402   0.30741   0.05597   0.10416
H          H       0.64105   0.49782   0.02665   0.07187
H          H       0.50013   0.13492   0.02323   0.07384
H          H       0.85535   0.36626   0.93071   0.07817
H          H       0.59279   0.58243   0.01955   0.12530
H          H       0.41576   0.00475   0.01376   0.12562
H          H       0.98822   0.40832   0.96772   0.12972
H          H       0.63966   0.55914   0.02210   0.12437
H          H       0.44019   0.07413   0.02121   0.12907
H          H       0.91710   0.36539   0.93841   0.12854
H          H       0.42657   0.49602   0.00773   0.14019
H          H       0.49684   0.92680   0.95839   0.13892
H          H       0.07416   0.56656   0.06266   0.14527
H          H       0.47378   0.47346   0.00544   0.13275
H          H       0.52112   0.99740   0.95319   0.13085
H          H       0.00385   0.52123   0.05939   0.13276
H          H       0.47328   0.60221   0.00527   0.05936
H          H       0.39581   0.86429   0.04212   0.07065
H          H       0.12612   0.52564   0.95861   0.06694
H          H       0.45466   0.62234   0.12522   0.09944
H          H       0.35810   0.81786   0.94936   0.10931
H          H       0.18395   0.53743   0.07196   0.10579
H          H       0.42213   0.65873   0.09976   0.10165
H          H       0.32468   0.75214   0.95411   0.10271
H          H       0.24914   0.56900   0.06297   0.10372
H          H       0.31829   0.58124   0.86941   0.10343
H          H       0.42555   0.74740   0.98696   0.10594
H          H       0.24789   0.67669   0.96471   0.10505
H          H       0.35107   0.54314   0.90802   0.11604
H          H       0.45877   0.81474   0.97214   0.12026
H          H       0.18239   0.64401   0.98307   0.12081
H          H       0.30077   0.60194   0.50572   0.10077
H          H       0.39984   0.70335   0.46443   0.10261
H          H       0.29958   0.70630   0.44855   0.10136
H          H       0.70842   0.40233   0.48770   0.09995
H          H       0.60403   0.30814   0.53240   0.09782
H          H       0.69569   0.29294   0.53150   0.09978
H          H       0.58121   0.34511   0.44960   0.10268
H          H       0.66208   0.24487   0.48510   0.10487
H          H       0.76417   0.41353   0.59047   0.10051
H          H       0.55651   0.38558   0.45723   0.11728
H          H       0.62002   0.17998   0.47388   0.11796
H          H       0.82899   0.43991   0.56921   0.11966
H          H       0.66768   0.46648   0.58082   0.10109
H          H       0.53150   0.19444   0.51732   0.10520
H          H       0.80404   0.34665   0.40474   0.09911
H          H       0.69239   0.42564   0.58390   0.09891
H          H       0.57261   0.25775   0.53318   0.10105
H          H       0.74011   0.32124   0.42005   0.10133
H          H       0.63980   0.50136   0.49706   0.06962
H          H       0.50268   0.14055   0.51835   0.07445
H          H       0.86007   0.36660   0.45266   0.07850
H          H       0.59413   0.58565   0.50897   0.12543
H          H       0.41721   0.01038   0.50609   0.12706
H          H       0.99274   0.40967   0.48840   0.12948
H          H       0.63979   0.56148   0.50626   0.12402
H          H       0.44175   0.07976   0.51426   0.12851
H          H       0.92180   0.36616   0.46204   0.12885
H          H       0.42860   0.50087   0.51224   0.14247
H          H       0.49938   0.93044   0.47741   0.13900
H          H       0.07523   0.57375   0.51011   0.14176
H          H       0.47460   0.47713   0.50733   0.13328
H          H       0.52351   0.00175   0.46290   0.13042
H          H       0.00400   0.52985   0.48349   0.13618
H          H       0.47642   0.60739   0.50463   0.06061
H          H       0.39517   0.87154   0.51988   0.06901
H          H       0.13377   0.52166   0.54826   0.06956
H          H       0.45855   0.62752   0.63240   0.09900
H          H       0.36488   0.81500   0.55275   0.10329
H          H       0.18003   0.55185   0.43190   0.10544
H          H       0.42644   0.66403   0.61023   0.10262
H          H       0.33144   0.75024   0.54414   0.10453
H          H       0.24427   0.58518   0.40722   0.09439
H          H       0.32212   0.58722   0.37842   0.10364
H          H       0.42088   0.76048   0.38127   0.10175
H          H       0.25698   0.67203   0.58370   0.10224
H          H       0.35440   0.54898   0.41264   0.11682
H          H       0.45551   0.82566   0.40000   0.12072
H          H       0.19135   0.63857   0.60256   0.11286
C          C       0.34845   0.64537   0.96810   0.08216
C          C       0.35113   0.70328   0.97630   0.06999
C          C       0.29354   0.64563   0.99502   0.06756
C          C       0.31119   0.62720   0.97986  -0.17590
C          C       0.36750   0.68381   0.95925  -0.17616
C          C       0.31436   0.68333  -0.00245  -0.18535
C          C       0.65167   0.35339   0.02301   0.08264
C          C       0.64206   0.29330   0.00509   0.07160
C          C       0.70339   0.34555   0.00748   0.06708
C          C       0.68915   0.36688   0.02441  -0.17688
C          C       0.62886   0.31618   0.01709  -0.17603
C          C       0.67932   0.30893  -0.00361  -0.18366
C          C       0.59927   0.36577   0.01914  -0.12558
C          C       0.63048   0.23035   0.99312  -0.12762
C          C       0.76512   0.40043   0.97407  -0.12643
C          C       0.58546   0.38976   0.01223  -0.14305
C          C       0.60754   0.19324   0.99249  -0.14218
C          C       0.80260   0.41491   0.97920  -0.14507
C          C       0.60843   0.42747   0.01120   0.21340
C          C       0.56998   0.17768  -0.00337   0.20642
C          C       0.81940   0.39136   0.00385   0.20060
C          C       0.64598   0.44024   0.01292  -0.17274
C          C       0.55644   0.20144  -0.00045  -0.16973
C          C       0.79717   0.35225   0.03071  -0.17535
C          C       0.65947   0.41616   0.01870  -0.11396
C          C       0.57956   0.23844   0.00083  -0.12227
C          C       0.75994   0.33788   0.02992  -0.11873
C          C       0.63679   0.37812   0.02281   0.06527
C          C       0.61739   0.25414  -0.00143   0.05973
C          C       0.74269   0.36142   0.00108   0.06253
C          C       0.61105   0.48298   0.01883   0.05861
C          C       0.51509   0.12251   0.00455   0.05464
C          C       0.87149   0.39279   0.96607   0.06716
C          C       0.54942   0.52649   0.01498  -0.01643
C          C       0.47088   0.01830   0.99388  -0.00542
C          C       0.97754   0.45036   0.99564  -0.01809
C          C       0.58541   0.55433   0.01758  -0.16970
C          C       0.44373   0.02584   0.00530  -0.16670
C          C       0.96813   0.41596   0.97413  -0.17177
C          C       0.61046   0.54180   0.02083  -0.15751
C          C       0.45661   0.06292   0.00827  -0.15116
C          C       0.93013   0.39303   0.95783  -0.14417
C          C       0.59394   0.50433   0.01946  -0.01344
C          C       0.49369   0.08441  -0.00191  -0.03671
C          C       0.91012   0.40926   0.96938  -0.02238
C          C       0.47224   0.55010   0.01770  -0.01152
C          C       0.44480   0.91620  -0.00221  -0.02132
C          C       0.08009   0.52425   0.01426  -0.02391
C          C       0.45594   0.51296   0.01275  -0.11567
C          C       0.48107   0.93829   0.97459  -0.12667
C          C       0.06074   0.53903   0.04176  -0.13307
C          C       0.48110   0.50124   0.01099  -0.15629
C          C       0.49373   0.97580   0.97101  -0.15935
C          C       0.02331   0.51488   0.03855  -0.15970
C          C       0.51716   0.52908   0.01401  -0.01249
C          C       0.46742   0.98350   0.98970   0.00006
C          C       0.01328   0.48102   0.00930  -0.01297
C          C       0.45551   0.57216   0.01674   0.06035
C          C       0.42236   0.87729   0.00260   0.06492
C          C       0.11799   0.54106   0.00027   0.06457
C          C       0.42486   0.61362   0.06501  -0.17436
C          C       0.37331   0.80271   0.95843  -0.17605
C          C       0.19757   0.56813   0.04527  -0.17211
C          C       0.40643   0.63446   0.04863  -0.11687
C          C       0.35429   0.76499   0.96220  -0.11973
C          C       0.23487   0.58628   0.04063  -0.12208
C          C       0.36767   0.62376   0.97642   0.05953
C          C       0.37204   0.74335   0.97474   0.05972
C          C       0.25434   0.62592   0.00953   0.05691
C          C       0.34816   0.59027   0.92742  -0.12654
C          C       0.41029   0.76230   0.97947  -0.12382
C          C       0.23428   0.64616   0.98791  -0.12176
C          C       0.36629   0.56878   0.94788  -0.14959
C          C       0.42943   0.80030   0.97206  -0.14738
C          C       0.19721   0.62814   0.99561  -0.14497
C          C       0.40518   0.58034   0.01329   0.21048
C          C       0.41169   0.82131   0.96538   0.20092
C          C       0.17768   0.58885   0.02060   0.20535
C          C       0.35219   0.65064   0.47808   0.08055
C          C       0.35251   0.70967   0.46089   0.07359
C          C       0.29535   0.65178   0.47754   0.07428
C          C       0.31467   0.63234   0.48553  -0.17960
C          C       0.37068   0.68917   0.46730  -0.18057
C          C       0.31457   0.69068   0.46080  -0.18727
C          C       0.65457   0.35771   0.51629   0.07973
C          C       0.64622   0.29602   0.52206   0.06875
C          C       0.70710   0.34923   0.51443   0.07236
C          C       0.69157   0.37227   0.50637  -0.18053
C          C       0.63254   0.31961   0.52379  -0.17391
C          C       0.68404   0.31112   0.52430  -0.18173
C          C       0.60054   0.37136   0.48142  -0.12201
C          C       0.63372   0.23400   0.49600  -0.13252
C          C       0.77239   0.39900   0.54602  -0.13257
C          C       0.58628   0.39413   0.48292  -0.14325
C          C       0.61024   0.19737   0.48900  -0.14435
C          C       0.80910   0.41396   0.53577  -0.15312
C          C       0.60974   0.42925   0.51543   0.20938
C          C       0.57295   0.18175   0.49820   0.20481
C          C       0.82199   0.39553   0.48792   0.19706
C          C       0.64839   0.44023   0.54870  -0.17269
C          C       0.56014   0.20494   0.51154  -0.16919
C          C       0.79607   0.36138   0.44924  -0.17469
C          C       0.66242   0.41696   0.55012  -0.12352
C          C       0.58376   0.24137   0.51957  -0.12306
C          C       0.75940   0.34679   0.45818  -0.12489
C          C       0.63904   0.38197   0.51536   0.06638
C          C       0.62140   0.25702   0.51378   0.05974
C          C       0.74634   0.36499   0.50684   0.05908
C          C       0.61078   0.48515   0.50939   0.05882
C          C       0.51735   0.12760   0.50160   0.05622
C          C       0.87493   0.39530   0.46561   0.06402
C          C       0.55052   0.52930   0.51468  -0.01858
C          C       0.47263   0.02350   0.49235  -0.00479
C          C       0.98101   0.45335   0.49363  -0.02267
C          C       0.58639   0.55716   0.51072  -0.16915
C          C       0.44533   0.03132   0.50026  -0.17114
C          C       0.97224   0.41777   0.48714  -0.16993
C          C       0.61082   0.54422   0.51087  -0.15883
C          C       0.45828   0.06847   0.50266  -0.15201
C          C       0.93428   0.39461   0.47179  -0.15003
C          C       0.59404   0.50639   0.51453  -0.01214
C          C       0.49550   0.08961   0.49515  -0.04035
C          C       0.91360   0.41192   0.46847  -0.01927
C          C       0.47467   0.55471   0.51943  -0.01371
C          C       0.44661   0.92104   0.50361  -0.01720
C          C       0.08420   0.52613   0.53115  -0.02461
C          C       0.45795   0.51742   0.51605  -0.11583
C          C       0.48331   0.94254   0.48653  -0.12816
C          C       0.06287   0.54439   0.51242  -0.12846
C          C       0.48251   0.50507   0.51323  -0.15512
C          C       0.49593   0.98036   0.47860  -0.15773
C          C       0.02506   0.52092   0.49805  -0.16310
C          C       0.51871   0.53254   0.51499  -0.01208
C          C       0.46926   0.98864   0.48995  -0.00342
C          C       0.01657   0.48427   0.50512  -0.01489
C          C       0.45843   0.57724   0.51875   0.05696
C          C       0.42349   0.88248   0.50415   0.06307
C          C       0.12315   0.54123   0.53972   0.05604
C          C       0.42872   0.61897   0.57266  -0.17767
C          C       0.37739   0.80375   0.51231  -0.17308
C          C       0.19695   0.57743   0.47220  -0.17444
C          C       0.41052   0.63981   0.55876  -0.12017
C          C       0.35817   0.76669   0.50653  -0.12598
C          C       0.23365   0.59659   0.45767  -0.12279
C          C       0.37170   0.62906   0.48905   0.06126
C          C       0.37302   0.74953   0.46150   0.05704
C          C       0.25638   0.63145   0.49451   0.05377
C          C       0.35197   0.59597   0.43638  -0.12739
C          C       0.40854   0.77174   0.42266  -0.12775
C          C       0.24025   0.64596   0.54773  -0.12934
C          C       0.36981   0.57449   0.45396  -0.14558
C          C       0.42823   0.80862   0.43149  -0.15154
C          C       0.20341   0.62717   0.56037  -0.14945
C          C       0.40868   0.58581   0.51974   0.20742
C          C       0.41321   0.82560   0.47627   0.19395
C          C       0.18092   0.59232   0.52415   0.19946
S          S       0.54706   0.48454   0.01636   0.15323
S          S       0.51279   0.05796   0.98813   0.14501
S          S       0.93874   0.45370  -0.00233   0.15050
S          S       0.51909   0.57025   0.01802   0.09441
S          S       0.42671   0.94291   0.01359   0.10526
S          S       0.05120   0.47987   0.98557   0.10732
S          S       0.54769   0.48668   0.52098   0.15864
S          S       0.51469   0.06285   0.48864   0.14113
S          S       0.94164   0.45749   0.48331   0.14499
S          S       0.52141   0.57421   0.51818   0.08961
S          S       0.42811   0.94862   0.50830   0.10362
S          S       0.05658   0.47941   0.53196   0.10111
N          N       0.59182   0.44860   0.00988  -0.31103
N          N       0.54952   0.14026   0.99237  -0.30167
N          N       0.85694   0.40872   0.00142  -0.31133
N          N       0.42093   0.55755   0.02234  -0.28919
N          N       0.43372   0.85892   0.96385  -0.30458
N          N       0.14069   0.57328   0.03016  -0.29030
N          N       0.59254   0.44972   0.51576  -0.30832
N          N       0.55186   0.14464   0.49053  -0.30251
N          N       0.85954   0.41281   0.48358  -0.30714
N          N       0.42410   0.56286   0.52776  -0.28626
N          N       0.43571   0.86279   0.48092  -0.30243
N          N       0.14393   0.57636   0.53444  -0.28590

