data_crystal

_audit_creation_method 'AiiDA-DDEC plugin'

_cell_length_a        35.95350
_cell_length_b        35.94187
_cell_length_c         8.17524

_cell_angle_alpha     86.45181
_cell_angle_beta     67.16466
_cell_angle_gamma     120.16469

_symmetry_space_group_name_Hall 'P 1'
_symmetry_space_group_name_H-M  'P 1'

loop_
_symmetry_equiv_pos_as_xyz
 'x,y,z'

loop_
_atom_site_label
_atom_site_type_symbol
_atom_site_fract_x
_atom_site_fract_y
_atom_site_fract_z
_atom_site_charge
H          H       0.31286   0.71922   0.95824   0.10021
H          H       0.28882   0.58904   0.00586   0.10471
H          H       0.41612   0.69816   0.00906   0.10050
H          H       0.46062   0.76410   0.94789   0.10495
H          H       0.26866   0.69572   0.81821   0.10188
H          H       0.32501   0.56176   0.91665   0.09688
H          H       0.50786   0.84199   0.94577   0.10502
H          H       0.18862   0.66358   0.83036   0.10552
H          H       0.34966   0.51085   0.93254   0.10411
H          H       0.38990   0.85356   0.01523   0.12118
H          H       0.13329   0.53326   0.17353   0.12129
H          H       0.45067   0.59924   0.11103   0.11446
H          H       0.34108   0.77429   0.02431   0.10338
H          H       0.21397   0.56530   0.15983   0.10515
H          H       0.42364   0.64999   0.10604   0.10151
H          H       0.52001   0.89224   0.08247   0.07493
H          H       0.11038   0.63512   0.00437   0.07333
H          H       0.36816   0.46909   0.98760   0.08004
H          H       0.72319   0.31320   0.04348   0.10197
H          H       0.69051   0.41183   0.00782   0.09902
H          H       0.59851   0.27964   0.97887   0.10068
H          H       0.57017   0.21021   0.14603   0.10411
H          H       0.79803   0.37294   0.88791   0.10225
H          H       0.64796   0.42785   0.99318   0.10629
H          H       0.55388   0.13549   0.13104   0.10673
H          H       0.87518   0.43029   0.88007   0.10181
H          H       0.59244   0.44663   0.98784   0.10762
H          H       0.70922   0.19535   0.84856   0.11813
H          H       0.81072   0.49949   0.12900   0.11734
H          H       0.50054   0.31518   0.95466   0.11922
H          H       0.72596   0.27111   0.85492   0.10427
H          H       0.73206   0.44043   0.14580   0.10474
H          H       0.55687   0.29580   0.95786   0.10543
H          H       0.56297   0.09301   0.93945   0.07380
H          H       0.91833   0.46475   0.01428   0.06444
H          H       0.53558   0.45132   0.02271   0.06945
H          H       0.36734   0.39707   0.97693   0.13109
H          H       0.59560   0.96198   0.07376   0.12824
H          H       0.04283   0.64036   0.98725   0.12621
H          H       0.42141   0.36635   0.96740   0.13909
H          H       0.63628   0.04967   0.03180   0.14098
H          H       0.95850   0.58953   0.98226   0.13661
H          H       0.30180   0.71379   0.46136   0.09950
H          H       0.28222   0.58566   0.48763   0.10354
H          H       0.40579   0.69441   0.51302   0.09947
H          H       0.43266   0.74984   0.57181   0.10265
H          H       0.26005   0.69072   0.31067   0.09842
H          H       0.29447   0.54414   0.58714   0.10586
H          H       0.47829   0.82604   0.58166   0.10120
H          H       0.17949   0.65880   0.32733   0.10486
H          H       0.32303   0.49555   0.59601   0.10754
H          H       0.39422   0.85718   0.41944   0.12014
H          H       0.12314   0.52941   0.68283   0.11885
H          H       0.46389   0.61128   0.47927   0.12169
H          H       0.34747   0.77945   0.40784   0.09921
H          H       0.20433   0.56174   0.66701   0.10765
H          H       0.43637   0.66112   0.45970   0.10483
H          H       0.51534   0.89021   0.55826   0.07101
H          H       0.10197   0.63161   0.50303   0.07485
H          H       0.37257   0.47686   0.43930   0.07868
H          H       0.71292   0.30794   0.54897   0.10129
H          H       0.68397   0.40874   0.49555   0.09965
H          H       0.58600   0.27451   0.50072   0.10046
H          H       0.55870   0.20564   0.64801   0.10370
H          H       0.78903   0.36700   0.39203   0.10374
H          H       0.63048   0.41710   0.56370   0.09998
H          H       0.54197   0.13095   0.63093   0.10537
H          H       0.86633   0.42459   0.38151   0.10292
H          H       0.57800   0.43880   0.54473   0.10730
H          H       0.69667   0.18851   0.37729   0.11790
H          H       0.80340   0.49563   0.61972   0.11703
H          H       0.50272   0.32080   0.39501   0.11530
H          H       0.71395   0.26426   0.38475   0.10244
H          H       0.72435   0.43638   0.63923   0.10021
H          H       0.55778   0.29981   0.40374   0.10348
H          H       0.55184   0.08853   0.44377   0.07066
H          H       0.91128   0.46142   0.50913   0.06482
H          H       0.52759   0.44852   0.54020   0.06996
H          H       0.36768   0.40118   0.44186   0.13140
H          H       0.58710   0.95886   0.56707   0.12834
H          H       0.03484   0.63720   0.48183   0.12652
H          H       0.41940   0.36875   0.44559   0.14236
H          H       0.62598   0.04624   0.53074   0.13978
H          H       0.95069   0.58653   0.47532   0.13543
C          C       0.29545   0.65201   0.98341   0.08508
C          C       0.35540   0.64040   0.00300   0.07565
C          C       0.36788   0.71461   0.98659   0.06943
C          C       0.32476   0.69741   0.97313  -0.18074
C          C       0.31135   0.62413  -0.00144  -0.18087
C          C       0.38286   0.68563  -0.00081  -0.18757
C          C       0.44384   0.78269   0.96773  -0.12236
C          C       0.23889   0.66032   0.90010  -0.12248
C          C       0.35117   0.56975   0.96702  -0.12291
C          C       0.47093   0.82723   0.96630  -0.17858
C          C       0.19346   0.64237   0.90878  -0.17824
C          C       0.36554   0.54070   0.97474  -0.16832
C          C       0.45166   0.85355   0.98696   0.20392
C          C       0.15444   0.59619   0.00882   0.20735
C          C       0.40192   0.55081   0.02610   0.20138
C          C       0.40473   0.83332   0.00285  -0.14729
C          C       0.16333   0.56875   0.09513  -0.15282
C          C       0.42275   0.59123   0.07041  -0.14710
C          C       0.37764   0.78855   0.00697  -0.12394
C          C       0.20888   0.58695   0.08531  -0.12324
C          C       0.40759   0.61989   0.06534  -0.12822
C          C       0.39623   0.76173   0.98903   0.06160
C          C       0.24778   0.63312   0.98775   0.05721
C          C       0.37149   0.61007   0.01312   0.05702
C          C       0.51033   0.91377   0.03476   0.07326
C          C       0.09139   0.59944   0.00820   0.06241
C          C       0.40073   0.48522   0.00739   0.05691
C          C       0.71265   0.36698   0.02196   0.08002
C          C       0.63906   0.34695  -0.00177   0.06908
C          C       0.65958   0.29148   0.00998   0.07054
C          C       0.70083   0.32323   0.02449  -0.18052
C          C       0.68097   0.37782   0.01175  -0.17514
C          C       0.62922   0.30382  -0.00263  -0.17975
C          C       0.60097   0.20759   0.07523  -0.12070
C          C       0.79984   0.39961   0.94777  -0.12274
C          C       0.61581   0.40242   0.98508  -0.12753
C          C       0.59164   0.16540   0.06685  -0.18098
C          C       0.84364   0.43222   0.94183  -0.17490
C          C       0.58384   0.41319   0.98330  -0.16775
C          C       0.63068   0.16040   0.98468   0.20884
C          C       0.84825   0.46890   0.00738   0.20521
C          C       0.54075   0.38137   0.97781   0.20044
C          C       0.67915   0.19924   0.91142  -0.15497
C          C       0.80730   0.47137   0.07746  -0.14353
C          C       0.53262   0.33918   0.96686  -0.14170
C          C       0.68816   0.24138   0.91709  -0.13004
C          C       0.76341   0.43820   0.08599  -0.12648
C          C       0.56476   0.32866   0.96878  -0.12751
C          C       0.64934   0.24657   0.00094   0.06345
C          C       0.75843   0.40142   0.02140   0.06521
C          C       0.60685   0.35948   0.98206   0.06360
C          C       0.58743   0.08714   0.96771   0.06935
C          C       0.92336   0.49780   0.00338   0.05774
C          C       0.50759   0.42421  -0.00278   0.06444
C          C       0.42055   0.45903   0.00312  -0.02607
C          C       0.53907   0.96017   0.02680  -0.01268
C          C       0.04635   0.58154   0.00259  -0.01525
C          C       0.40097   0.41544   0.98648  -0.15976
C          C       0.58157   0.98079   0.04497  -0.15069
C          C       0.02561   0.60509   0.99153  -0.15203
C          C       0.42940   0.39907   0.98082  -0.13388
C          C       0.60346   0.02721   0.02163  -0.14057
C          C       0.98118   0.57858   0.98902  -0.13025
C          C       0.47117   0.43007   0.99267  -0.01942
C          C       0.57746   0.04245   0.98717  -0.02239
C          C       0.96745   0.53433  -0.00280  -0.00782
C          C       0.28656   0.64754   0.47819   0.08104
C          C       0.34644   0.63656   0.50159   0.06879
C          C       0.35857   0.71081   0.48091   0.06884
C          C       0.31520   0.69293   0.46896  -0.17229
C          C       0.30313   0.62005   0.49079  -0.17843
C          C       0.37323   0.68183   0.49802  -0.18295
C          C       0.42421   0.77300   0.53335  -0.12219
C          C       0.22985   0.65567   0.39647  -0.12465
C          C       0.33228   0.55975   0.55722  -0.12182
C          C       0.45040   0.81675   0.53959  -0.17384
C          C       0.18421   0.63785   0.40775  -0.17483
C          C       0.34847   0.53200   0.56205  -0.17330
C          C       0.44011   0.84812   0.49841   0.19634
C          C       0.14496   0.59192   0.51120   0.20333
C          C       0.39680   0.55046   0.52886   0.20627
C          C       0.40205   0.83306   0.45297  -0.14880
C          C       0.15347   0.56464   0.60083  -0.14875
C          C       0.42722   0.59733   0.49784  -0.14754
C          C       0.37588   0.78907   0.44710  -0.13090
C          C       0.19919   0.58282   0.58949  -0.12432
C          C       0.41107   0.62492   0.48906  -0.12462
C          C       0.38637   0.75774   0.48569   0.05850
C          C       0.23856   0.62859   0.48597   0.05904
C          C       0.36332   0.60712   0.51646   0.05813
C          C       0.50191   0.90993   0.52872   0.07063
C          C       0.08263   0.59587   0.50766   0.06181
C          C       0.39976   0.48826   0.48860   0.06792
C          C       0.70408   0.36253   0.52073   0.08022
C          C       0.62999   0.34289   0.50298   0.07299
C          C       0.64878   0.28638   0.51947   0.07121
C          C       0.69095   0.31827   0.52852  -0.18197
C          C       0.67312   0.37409   0.50821  -0.18158
C          C       0.61841   0.29901   0.50935  -0.18388
C          C       0.58936   0.20262   0.58224  -0.12337
C          C       0.79106   0.39411   0.44906  -0.12133
C          C       0.60349   0.39607   0.52191  -0.12318
C          C       0.57978   0.16039   0.57314  -0.18249
C          C       0.83502   0.42688   0.44169  -0.17751
C          C       0.57314   0.40824   0.51317  -0.16896
C          C       0.61858   0.15486   0.49731   0.20598
C          C       0.84015   0.46419   0.50300   0.21016
C          C       0.53540   0.38073   0.47149   0.19665
C          C       0.66691   0.19299   0.43338  -0.15024
C          C       0.79944   0.46700   0.57135  -0.14941
C          C       0.53067   0.34133   0.43354  -0.14393
C          C       0.67616   0.23514   0.43940  -0.12255
C          C       0.75543   0.43375   0.58135  -0.12361
C          C       0.56163   0.32964   0.44010  -0.12882
C          C       0.63774   0.24109   0.51449   0.05956
C          C       0.75006   0.39655   0.51950   0.06490
C          C       0.59846   0.35623   0.48700   0.06146
C          C       0.57608   0.08235   0.47238   0.07024
C          C       0.91555   0.49414   0.49850   0.06016
C          C       0.50180   0.42338   0.50060   0.06163
C          C       0.41753   0.46052   0.49255  -0.03342
C          C       0.52992   0.95618   0.52219  -0.00737
C          C       0.03781   0.57818   0.50045  -0.01072
C          C       0.39927   0.41809   0.46490  -0.15406
C          C       0.57259   0.97727   0.53924  -0.14828
C          C       0.01736   0.60184   0.48732  -0.15527
C          C       0.42645   0.40073   0.46624  -0.14277
C          C       0.59342   0.02341   0.51950  -0.14299
C          C       0.97303   0.57533   0.48379  -0.12177
C          C       0.46605   0.42995   0.49326  -0.01726
C          C       0.56670   0.03799   0.48733  -0.02038
C          C       0.95926   0.53103   0.49312  -0.01047
S          S       0.47494   0.47976   0.00933   0.13062
S          S       0.52632   0.99896   0.98144   0.14516
S          S       0.01023   0.52610   0.00778   0.12982
S          S       0.46877   0.47871   0.52001   0.13448
S          S       0.51572   0.99412   0.48178   0.13456
S          S       0.00180   0.52275   0.50595   0.12490
N          N       0.47584   0.89838   0.98861  -0.30616
N          N       0.10833   0.57545   0.01923  -0.29985
N          N       0.42036   0.52473   0.03152  -0.29899
N          N       0.62404   0.11871   0.98322  -0.28318
N          N       0.89089   0.50404   0.00256  -0.27820
N          N       0.50587   0.38799   0.97490  -0.29040
N          N       0.46470   0.89322   0.49777  -0.30967
N          N       0.09891   0.57143   0.52111  -0.29918
N          N       0.41612   0.52524   0.53307  -0.30138
N          N       0.61197   0.11331   0.49303  -0.28629
N          N       0.88276   0.49972   0.49680  -0.27942
N          N       0.50184   0.38877   0.46340  -0.28381

