data_crystal

_audit_creation_method 'AiiDA-DDEC plugin'

_cell_length_a        35.11595
_cell_length_b        34.54606
_cell_length_c         7.96670

_cell_angle_alpha     91.81594
_cell_angle_beta     100.58278
_cell_angle_gamma     89.94877

_symmetry_space_group_name_Hall 'P 1'
_symmetry_space_group_name_H-M  'P 1'

loop_
_symmetry_equiv_pos_as_xyz
 'x,y,z'

loop_
_atom_site_label
_atom_site_type_symbol
_atom_site_fract_x
_atom_site_fract_y
_atom_site_fract_z
_atom_site_charge
H          H       0.69660   0.34067   0.28924   0.09888
H          H       0.41994   0.53637   0.40992   0.10323
H          H       0.53827   0.65055   0.03747   0.10875
H          H       0.59529   0.69066   0.03153   0.12175
H          H       0.66640   0.60871   0.34473   0.10490
H          H       0.60874   0.56892   0.35214   0.10846
H          H       0.75787   0.81760   0.15005   0.10611
H          H       0.69804   0.78151   0.05622   0.12143
H          H       0.19680   0.84127   0.29206   0.10063
H          H       0.92107   0.03677   0.42914   0.10519
H          H       0.03973   0.14893   0.05232   0.10876
H          H       0.09687   0.18861   0.04018   0.12055
H          H       0.16797   0.10802   0.36180   0.10536
H          H       0.11037   0.06830   0.37150   0.10860
H          H       0.25831   0.31745   0.16026   0.10614
H          H       0.19784   0.28193   0.07474   0.11944
H          H       0.31035   0.33770   0.19607   0.10044
H          H       0.58555   0.53582   0.08516   0.10424
H          H       0.46498   0.65086   0.46356   0.10548
H          H       0.40750   0.69026   0.47556   0.12203
H          H       0.33746   0.60551   0.14718   0.10616
H          H       0.39541   0.56588   0.13928   0.10673
H          H       0.24650   0.81703   0.36629   0.10624
H          H       0.30573   0.78117   0.46086   0.12196
H          H       0.80868   0.84007   0.20700   0.10016
H          H       0.08629   0.03565   0.10187   0.10309
H          H       0.96564   0.15203   0.48265   0.10590
H          H       0.90796   0.19101   0.49117   0.12205
H          H       0.83883   0.10566   0.16266   0.10517
H          H       0.89694   0.06637   0.15853   0.10632
H          H       0.74767   0.31850   0.35027   0.10714
H          H       0.80643   0.28262   0.45261   0.11791
H          H       0.30827   0.65966   0.20943   0.10081
H          H       0.58600   0.46478   0.08493   0.10244
H          H       0.46731   0.35082   0.44391   0.10418
H          H       0.41053   0.31022   0.45107   0.12157
H          H       0.33853   0.39186   0.13948   0.10609
H          H       0.39570   0.43291   0.13749   0.10599
H          H       0.24864   0.18323   0.34888   0.10700
H          H       0.30923   0.21865   0.43282   0.12243
H          H       0.80954   0.16016   0.21526   0.09992
H          H       0.08617   0.96479   0.09741   0.10365
H          H       0.96598   0.85081   0.45082   0.10570
H          H       0.90883   0.81109   0.45950   0.12197
H          H       0.83749   0.89414   0.15411   0.10673
H          H       0.89507   0.93413   0.14810   0.10655
H          H       0.74659   0.68462   0.35005   0.10692
H          H       0.80677   0.72051   0.44105   0.12180
H          H       0.69555   0.66175   0.28785   0.10030
H          H       0.42044   0.46553   0.40844   0.10629
H          H       0.54026   0.35031   0.02644   0.10872
H          H       0.59734   0.31014   0.01952   0.12197
H          H       0.66770   0.39487   0.34637   0.10627
H          H       0.61004   0.43496   0.35255   0.10787
H          H       0.75832   0.18228   0.15171   0.10658
H          H       0.69962   0.21831   0.04797   0.11814
H          H       0.19697   0.16118   0.30062   0.10105
H          H       0.92040   0.96575   0.41975   0.10418
H          H       0.04021   0.85100   0.03069   0.10933
H          H       0.09755   0.81137   0.02021   0.12058
H          H       0.16732   0.89479   0.35715   0.10569
H          H       0.10954   0.93461   0.36423   0.10770
H          H       0.25749   0.68229   0.15004   0.10618
H          H       0.19841   0.71809   0.05466   0.11880
H          H       0.50150   0.63416   0.24683   0.11008
H          H       0.00336   0.13426   0.26954   0.11076
H          H       0.50346   0.36723   0.23717   0.10914
H          H       0.00245   0.86728   0.24479   0.10955
H          H       0.69123   0.34048   0.78583   0.10105
H          H       0.41341   0.53581   0.90200   0.10479
H          H       0.53347   0.64909   0.54269   0.10560
H          H       0.59063   0.68846   0.53008   0.12133
H          H       0.66192   0.60679   0.84453   0.10560
H          H       0.60425   0.56727   0.85427   0.10633
H          H       0.75046   0.81829   0.67114   0.10824
H          H       0.69039   0.78234   0.57696   0.12301
H          H       0.19180   0.84087   0.79665   0.10014
H          H       0.91340   0.03510   0.92228   0.10297
H          H       0.03324   0.14875   0.55835   0.10300
H          H       0.09058   0.18726   0.53732   0.12088
H          H       0.16198   0.10676   0.85747   0.10612
H          H       0.10428   0.06765   0.87282   0.10640
H          H       0.25193   0.31583   0.66356   0.10736
H          H       0.19122   0.28041   0.57685   0.12333
H          H       0.30479   0.33548   0.68979   0.09958
H          H       0.57948   0.53466   0.58253   0.10582
H          H       0.45959   0.64999   0.96591   0.10837
H          H       0.40247   0.69006   0.97349   0.12025
H          H       0.33260   0.60674   0.63572   0.10694
H          H       0.39025   0.56657   0.63129   0.10712
H          H       0.24531   0.82091   0.82771   0.10781
H          H       0.30443   0.78480   0.92355   0.12048
H          H       0.80425   0.83799   0.70095   0.10035
H          H       0.07978   0.03553   0.60442   0.10562
H          H       0.95826   0.14964   0.98907   0.10940
H          H       0.90062   0.18918   0.99229   0.12064
H          H       0.83226   0.10519   0.65286   0.10679
H          H       0.89051   0.06560   0.65124   0.10724
H          H       0.74444   0.32087   0.81863   0.10702
H          H       0.80307   0.28449   0.92352   0.11989
H          H       0.30385   0.66176   0.69465   0.09995
H          H       0.57965   0.46369   0.58010   0.10317
H          H       0.46128   0.35091   0.95029   0.10736
H          H       0.40507   0.30940   0.95388   0.12069
H          H       0.33301   0.38925   0.63207   0.10673
H          H       0.38977   0.43061   0.62923   0.10793
H          H       0.24383   0.17899   0.82146   0.10694
H          H       0.30444   0.21444   0.91013   0.11957
H          H       0.80301   0.16015   0.70493   0.10064
H          H       0.08036   0.96484   0.59999   0.10436
H          H       0.96088   0.85047   0.96346   0.10805
H          H       0.90368   0.81024   0.96664   0.11981
H          H       0.83331   0.89177   0.64760   0.10702
H          H       0.89114   0.93187   0.64551   0.10718
H          H       0.74413   0.67984   0.80819   0.10794
H          H       0.80399   0.71594   0.90412   0.12029
H          H       0.69102   0.66036   0.78370   0.09945
H          H       0.41344   0.46482   0.89923   0.10545
H          H       0.53486   0.34926   0.52428   0.10519
H          H       0.59260   0.31031   0.51257   0.12110
H          H       0.66200   0.39504   0.84421   0.10611
H          H       0.60374   0.43421   0.85118   0.10504
H          H       0.75077   0.18166   0.65714   0.10813
H          H       0.69206   0.21782   0.55390   0.12361
H          H       0.19067   0.15964   0.79623   0.10060
H          H       0.91400   0.96423   0.91827   0.10464
H          H       0.03564   0.85114   0.53075   0.10645
H          H       0.09334   0.81228   0.51600   0.12042
H          H       0.16258   0.89486   0.85960   0.10621
H          H       0.10448   0.93417   0.86938   0.10609
H          H       0.25018   0.68119   0.67179   0.10796
H          H       0.19107   0.71736   0.57543   0.12148
H          H       0.49678   0.63317   0.74885   0.10934
H          H       0.99630   0.13342   0.77213   0.11051
H          H       0.49760   0.36636   0.73984   0.10971
H          H       0.99805   0.86645   0.75213   0.11166
C          C       0.03545   0.91812   0.21749   0.02488
C          C       0.03477   0.95921   0.20995   0.03090
C          C       0.06408   0.98062   0.14982  -0.13480
C          C       0.93515   0.89586   0.30100   0.07713
C          C       0.93779   0.86055   0.38597  -0.12747
C          C       0.90533   0.83800   0.39158  -0.10110
C          C       0.86822   0.84961   0.30808   0.09771
C          C       0.86564   0.88504   0.22269  -0.12962
C          C       0.89807   0.90770   0.21987  -0.13648
C          C       0.17261   0.82729   0.20649  -0.15191
C          C       0.78760   0.77209   0.30418   0.06294
C          C       0.75604   0.78842   0.19503  -0.12904
C          C       0.72179   0.76791   0.14083  -0.12328
C          C       0.67941   0.70984   0.14115  -0.00073
C          C       0.65349   0.27124   0.00923   0.24366
C          C       0.53570   0.41824   0.20553   0.02273
C          C       0.53446   0.45927   0.19531   0.03208
C          C       0.56363   0.48076   0.13480  -0.13430
C          C       0.43589   0.39528   0.29243   0.07472
C          C       0.43901   0.36010   0.37837  -0.12277
C          C       0.40683   0.33713   0.38325  -0.10175
C          C       0.36970   0.34808   0.29736   0.09632
C          C       0.36662   0.38341   0.21106  -0.12710
C          C       0.39876   0.40658   0.20977  -0.13544
C          C       0.67289   0.32711   0.19922  -0.15035
C          C       0.28924   0.27082   0.30271   0.06149
C          C       0.25689   0.28792   0.20182  -0.12649
C          C       0.22226   0.26777   0.15271  -0.12167
C          C       0.18026   0.20925   0.15388  -0.00008
C          C       0.15202   0.77044   0.02381   0.24136
C          C       0.96992   0.91832   0.28522   0.02303
C          C       0.97101   0.95949   0.30106   0.03197
C          C       0.94222   0.98131   0.36752  -0.13051
C          C       0.07024   0.89572   0.19897   0.07572
C          C       0.06806   0.86055   0.10353  -0.12696
C          C       0.10065   0.83813   0.09670  -0.10045
C          C       0.13739   0.84972   0.18910   0.09576
C          C       0.13956   0.88545   0.28225  -0.13130
C          C       0.10700   0.90791   0.28691  -0.13598
C          C       0.83286   0.82739   0.29307  -0.15042
C          C       0.21721   0.77074   0.20071   0.06283
C          C       0.24838   0.78757   0.31638  -0.12596
C          C       0.28226   0.76718   0.37133  -0.12311
C          C       0.32415   0.70852   0.36652   0.00328
C          C       0.35579   0.27127   0.46627   0.23959
C          C       0.47031   0.41803   0.27475   0.02308
C          C       0.47080   0.45924   0.28725   0.03234
C          C       0.44184   0.48098   0.35303  -0.13391
C          C       0.57061   0.39588   0.18856   0.07686
C          C       0.56823   0.36022   0.09678  -0.12439
C          C       0.60068   0.33748   0.09177  -0.10174
C          C       0.63753   0.34939   0.18180   0.09594
C          C       0.63983   0.38539   0.27288  -0.13028
C          C       0.60739   0.40812   0.27613  -0.13869
C          C       0.33468   0.32537   0.28253  -0.15102
C          C       0.71832   0.27133   0.19084   0.06348
C          C       0.74940   0.28866   0.30509  -0.12763
C          C       0.78297   0.26828   0.36455  -0.11653
C          C       0.82423   0.20907   0.37319   0.00505
C          C       0.85329   0.77312   0.47619   0.24165
C          C       0.97071   0.08348   0.30181   0.02379
C          C       0.97144   0.04236   0.30947   0.03220
C          C       0.94253   0.02093   0.37233  -0.13278
C          C       0.07057   0.10557   0.21200   0.07677
C          C       0.06789   0.14004   0.12111  -0.12479
C          C       0.10031   0.16250   0.11372  -0.10106
C          C       0.13733   0.15160   0.20118   0.09567
C          C       0.13995   0.11672   0.29080  -0.12923
C          C       0.10755   0.09420   0.29613  -0.13817
C          C       0.83288   0.17356   0.30795  -0.14755
C          C       0.21792   0.22953   0.20348   0.06351
C          C       0.25018   0.21260   0.30571  -0.12548
C          C       0.28483   0.23271   0.35443  -0.12221
C          C       0.32703   0.29081   0.34995   0.00362
C          C       0.35215   0.72885   0.48969   0.24297
C          C       0.46939   0.58311   0.28122   0.02416
C          C       0.47036   0.54206   0.29023   0.03160
C          C       0.44164   0.52058   0.35439  -0.13094
C          C       0.56898   0.60623   0.19294   0.07515
C          C       0.56636   0.64120   0.10528  -0.12397
C          C       0.59881   0.66393   0.10084  -0.10216
C          C       0.63586   0.65268   0.18694   0.09476
C          C       0.63836   0.61751   0.27409  -0.12826
C          C       0.60593   0.59492   0.27751  -0.13823
C          C       0.33218   0.67308   0.29868  -0.14955
C          C       0.71697   0.73002   0.19448   0.06488
C          C       0.74853   0.71369   0.30390  -0.12836
C          C       0.78288   0.73412   0.35730  -0.12072
C          C       0.82497   0.79255   0.35759   0.00445
C          C       0.85128   0.22910   0.50159   0.24317
C          C       0.03586   0.08321   0.22947   0.02413
C          C       0.03492   0.04204   0.21555   0.03035
C          C       0.06414   0.02020   0.15224  -0.13215
C          C       0.93590   0.10583   0.32149   0.07661
C          C       0.93782   0.14149   0.41321  -0.12699
C          C       0.90499   0.16366   0.41893  -0.10184
C          C       0.86830   0.15140   0.32834   0.09626
C          C       0.86645   0.11540   0.23758  -0.12498
C          C       0.89919   0.09315   0.23499  -0.13849
C          C       0.17262   0.17406   0.21627  -0.15272
C          C       0.78748   0.22942   0.31221   0.06459
C          C       0.75657   0.21216   0.19674  -0.13064
C          C       0.72298   0.23260   0.13700  -0.11761
C          C       0.68127   0.29154   0.13355   0.00101
C          C       0.65109   0.72974   0.02435   0.24255
C          C       0.53447   0.58341   0.20926   0.02436
C          C       0.53388   0.54218   0.19677   0.03197
C          C       0.56337   0.52036   0.13535  -0.13454
C          C       0.43464   0.60527   0.30167   0.07691
C          C       0.43696   0.64077   0.39457  -0.12592
C          C       0.40435   0.66305   0.40235  -0.10258
C          C       0.36751   0.65094   0.31317   0.09878
C          C       0.36527   0.61511   0.22074  -0.13020
C          C       0.39784   0.59271   0.21585  -0.13613
C          C       0.67133   0.67485   0.20361  -0.14971
C          C       0.28701   0.72880   0.31290   0.06607
C          C       0.25573   0.71188   0.19843  -0.13119
C          C       0.22187   0.73227   0.14342  -0.11877
C          C       0.18025   0.79114   0.14451   0.00360
C          C       0.15159   0.22923   0.03890   0.24255
C          C       0.50235   0.47993   0.24052   0.00769
C          C       0.50312   0.39874   0.23879  -0.18198
C          C       0.00290   0.98001   0.25664   0.00520
C          C       0.00257   0.89880   0.24887  -0.18285
C          C       0.50216   0.52144   0.24190   0.00364
C          C       0.50170   0.60266   0.24543  -0.18261
C          C       0.00305   0.02152   0.26025   0.00507
C          C       0.00328   0.10274   0.26667  -0.18386
C          C       0.03055   0.91762   0.72244   0.02551
C          C       0.02955   0.95872   0.71628   0.03096
C          C       0.05848   0.98040   0.65501  -0.13164
C          C       0.93046   0.89437   0.80524   0.07558
C          C       0.93289   0.85952   0.89345  -0.12543
C          C       0.90039   0.83681   0.89632  -0.09831
C          C       0.86353   0.84782   0.80742   0.09358
C          C       0.86118   0.88297   0.71997  -0.13084
C          C       0.89367   0.90569   0.71889  -0.13576
C          C       0.16804   0.82787   0.70505  -0.15014
C          C       0.78263   0.76994   0.79505   0.06606
C          C       0.74975   0.78786   0.70165  -0.12810
C          C       0.71534   0.76750   0.64778  -0.12042
C          C       0.67421   0.70796   0.63471   0.00180
C          C       0.64849   0.27253   0.49602   0.24056
C          C       0.53006   0.41721   0.70747   0.02508
C          C       0.52915   0.45826   0.69875   0.03182
C          C       0.55800   0.47959   0.63526  -0.13060
C          C       0.43006   0.39414   0.79097   0.07520
C          C       0.43311   0.35936   0.88004  -0.12481
C          C       0.40113   0.33588   0.88302  -0.09963
C          C       0.36406   0.34605   0.79339   0.09483
C          C       0.36105   0.38111   0.70503  -0.13206
C          C       0.39303   0.40462   0.70398  -0.13731
C          C       0.66772   0.32760   0.69237  -0.15093
C          C       0.28364   0.26804   0.79323   0.06440
C          C       0.25077   0.28579   0.69905  -0.12708
C          C       0.21607   0.26575   0.64935  -0.12173
C          C       0.17442   0.20686   0.64351   0.00121
C          C       0.14808   0.77187   0.51503   0.24140
C          C       0.96514   0.91718   0.79138   0.02744
C          C       0.96575   0.95834   0.80672   0.02721
C          C       0.93623   0.97991   0.86921  -0.13206
C          C       0.06547   0.89562   0.70125   0.07676
C          C       0.06350   0.86082   0.60319  -0.12803
C          C       0.09625   0.83879   0.59419  -0.10087
C          C       0.13285   0.85029   0.68800   0.09744
C          C       0.13487   0.88562   0.78389  -0.12874
C          C       0.10219   0.90780   0.78985  -0.13759
C          C       0.82821   0.82531   0.78836  -0.14799
C          C       0.21298   0.77201   0.69348   0.06427
C          C       0.24572   0.79024   0.79280  -0.13013
C          C       0.27958   0.76980   0.84741  -0.11874
C          C       0.31965   0.70968   0.85776  -0.00011
C          C       0.35025   0.26842   0.95593   0.24201
C          C       0.46460   0.41717   0.77612   0.02460
C          C       0.46529   0.45838   0.78908   0.02978
C          C       0.43575   0.48026   0.84979  -0.13359
C          C       0.56481   0.39491   0.68770   0.07566
C          C       0.56277   0.35951   0.59400  -0.12473
C          C       0.59558   0.33749   0.58621  -0.10199
C          C       0.63233   0.34968   0.67646   0.09929
C          C       0.63428   0.38533   0.76997  -0.12975
C          C       0.60152   0.40746   0.77449  -0.13418
C          C       0.32904   0.32311   0.77653  -0.14822
C          C       0.71301   0.27224   0.67850   0.06376
C          C       0.74519   0.29027   0.78286  -0.12897
C          C       0.77870   0.26972   0.84265  -0.11857
C          C       0.81841   0.20923   0.86131   0.00184
C          C       0.84824   0.77016   0.96730   0.24174
C          C       0.96415   0.08235   0.80448   0.02287
C          C       0.96529   0.04126   0.81350   0.03121
C          C       0.93597   0.01952   0.87199  -0.13347
C          C       0.06418   0.10504   0.71577   0.07725
C          C       0.06151   0.13939   0.62391  -0.12438
C          C       0.09403   0.16127   0.61168  -0.10103
C          C       0.13116   0.15013   0.69684   0.09675
C          C       0.13380   0.11552   0.78819  -0.12962
C          C       0.10133   0.09343   0.79686  -0.13620
C          C       0.82640   0.17330   0.79816  -0.15254
C          C       0.21218   0.22687   0.69250   0.06674
C          C       0.24500   0.20910   0.78687  -0.13103
C          C       0.27970   0.22918   0.83708  -0.11882
C          C       0.32140   0.28821   0.84135  -0.00104
C          C       0.34750   0.72950   0.98336   0.24106
C          C       0.46425   0.58241   0.78233   0.02351
C          C       0.46517   0.54133   0.79251   0.02911
C          C       0.43572   0.51988   0.85145  -0.13363
C          C       0.56437   0.60465   0.69632   0.07572
C          C       0.56169   0.63952   0.60813  -0.12648
C          C       0.59417   0.66185   0.60025  -0.10225
C          C       0.63133   0.65058   0.68488   0.09817
C          C       0.63389   0.61562   0.77390  -0.13079
C          C       0.60142   0.59319   0.77919  -0.13540
C          C       0.32750   0.67438   0.78814  -0.14802
C          C       0.71179   0.72821   0.68565   0.06396
C          C       0.74476   0.71026   0.77790  -0.13070
C          C       0.77909   0.73063   0.83219  -0.11980
C          C       0.82016   0.79020   0.84992  -0.00214
C          C       0.84564   0.22936   0.98850   0.24288
C          C       0.02962   0.08268   0.73582   0.02415
C          C       0.02909   0.04150   0.72311   0.03206
C          C       0.05821   0.01996   0.65796  -0.13256
C          C       0.92899   0.10463   0.81962   0.07645
C          C       0.93067   0.13990   0.91411  -0.12461
C          C       0.89788   0.16230   0.91673  -0.10264
C          C       0.86151   0.15059   0.82113   0.09560
C          C       0.85981   0.11478   0.72885  -0.13045
C          C       0.89256   0.09235   0.72817  -0.13688
C          C       0.16655   0.17219   0.70938  -0.15053
C          C       0.78200   0.23010   0.79944   0.06410
C          C       0.74998   0.21222   0.69339  -0.12875
C          C       0.71644   0.23272   0.63402  -0.11990
C          C       0.67606   0.29257   0.62209   0.00382
C          C       0.64554   0.72775   0.51922   0.24234
C          C       0.52975   0.58218   0.71409   0.02469
C          C       0.52902   0.54099   0.70206   0.03313
C          C       0.55794   0.51916   0.63675  -0.13335
C          C       0.42942   0.60504   0.79912   0.07531
C          C       0.43169   0.64034   0.89371  -0.12334
C          C       0.39920   0.66301   0.89902  -0.10196
C          C       0.36251   0.65157   0.80577   0.09324
C          C       0.36028   0.61594   0.71190  -0.12874
C          C       0.39273   0.59318   0.70921  -0.13788
C          C       0.66661   0.67297   0.69875  -0.14838
C          C       0.28266   0.73018   0.80402   0.06420
C          C       0.24983   0.71191   0.70561  -0.12765
C          C       0.21600   0.73234   0.65099  -0.11807
C          C       0.17595   0.79232   0.63835   0.00245
C          C       0.14566   0.22661   0.52822   0.24084
C          C       0.49733   0.47899   0.74632   0.00507
C          C       0.49748   0.39785   0.74125  -0.18261
C          C       0.99760   0.97921   0.76403   0.00706
C          C       0.99798   0.89797   0.75524  -0.18631
C          C       0.49725   0.52049   0.74773   0.00630
C          C       0.49698   0.60167   0.74901  -0.18156
C          C       0.99743   0.02070   0.76791   0.00531
C          C       0.99674   0.10192   0.77127  -0.18415
N          N       0.63181   0.25442   0.90256  -0.35216
N          N       0.13022   0.75287   0.92041  -0.35005
N          N       0.37820   0.25436   0.56419  -0.35008
N          N       0.87525   0.75668   0.57777  -0.35212
N          N       0.37373   0.74614   0.59510  -0.35335
N          N       0.87219   0.24584   0.61140  -0.35367
N          N       0.62909   0.74680   0.92537  -0.35041
N          N       0.12962   0.24644   0.94034  -0.35005
N          N       0.62719   0.25527   0.38947  -0.35120
N          N       0.12656   0.75444   0.40996  -0.35049
N          N       0.37276   0.25153   0.05343  -0.35079
N          N       0.86983   0.75304   0.06777  -0.35029
N          N       0.36893   0.74631   0.09105  -0.35017
N          N       0.86645   0.24621   0.09823  -0.35188
N          N       0.62327   0.74446   0.41998  -0.35175
N          N       0.12300   0.24324   0.43031  -0.35041

