data_crystal

_audit_creation_method 'AiiDA-DDEC plugin'

_cell_length_a        38.37478
_cell_length_b        37.25679
_cell_length_c         8.01068

_cell_angle_alpha     80.94931
_cell_angle_beta     78.16713
_cell_angle_gamma     59.28764

_symmetry_space_group_name_Hall 'P 1'
_symmetry_space_group_name_H-M  'P 1'

loop_
_symmetry_equiv_pos_as_xyz
 'x,y,z'

loop_
_atom_site_label
_atom_site_type_symbol
_atom_site_fract_x
_atom_site_fract_y
_atom_site_fract_z
_atom_site_charge
H          H       0.99516   0.04409   0.07430   0.10746
H          H       0.96526   0.99832   0.56621   0.12055
H          H       0.85403   0.08289   0.35871   0.10642
H          H       0.88364   0.12584   0.38812   0.11790
H          H       0.96745   0.18778   0.30185   0.11897
H          H       0.06231   0.09271   0.46323   0.10741
H          H       0.00331   0.22763   0.24891   0.10830
H          H       0.09986   0.13135   0.41075   0.11137
H          H       0.77275   0.06462   0.09770   0.10565
H          H       0.87423   0.94421   0.21638   0.12089
H          H       0.74041   0.02459   0.51693   0.10927
H          H       0.83995   0.91033   0.14545   0.10670
H          H       0.82747   0.06101   0.22203   0.11385
H          H       0.01250   0.08420   0.08433   0.10455
H          H       0.81915   0.88304   0.05207   0.10078
H          H       0.71576   0.99497   0.45323   0.10239
H          H       0.71921   0.87911   0.42007   0.10630
H          H       0.74157   0.82748   0.13809   0.10909
H          H       0.84888   0.82457   0.32235   0.11123
H          H       0.77890   0.75061   0.15553   0.12238
H          H       0.88720   0.74758   0.32474   0.10672
H          H       0.67503   0.91138   0.27205   0.10739
H          H       0.65453   0.02319   0.46625   0.10803
H          H       0.60440   0.94855   0.21241   0.10664
H          H       0.58541   0.06058   0.39811   0.11887
H          H       0.13792   0.15208   0.50666   0.10771
H          H       0.01749   0.26879   0.06638   0.10507
H          H       0.13065   0.27232   0.45425   0.10523
H          H       0.18319   0.24454   0.07711   0.11172
H          H       0.19522   0.13762   0.31388   0.10932
H          H       0.25794   0.21400   0.01222   0.10731
H          H       0.26988   0.10692   0.25081   0.11943
H          H       0.32168   0.16221   0.38000   0.09870
H          H       0.41807   0.04303   0.11042   0.11865
H          H       0.37399   0.15358   0.37818   0.10635
H          H       0.48847   0.02419   0.12254   0.10554
H          H       0.44373   0.13435   0.39421   0.11678
H          H       0.99407   0.32446   0.21758   0.11138
H          H       0.08897   0.33134   0.31589   0.10777
H          H       0.95183   0.40091   0.22674   0.10750
H          H       0.04972   0.40719   0.32365   0.11884
H          H       0.89343   0.68463   0.39514   0.10092
H          H       0.84968   0.60039   0.24850   0.12159
H          H       0.93781   0.62719   0.37451   0.10845
H          H       0.89663   0.52675   0.20031   0.10842
H          H       0.98544   0.55403   0.32494   0.12269
H          H       0.94023   0.46681   0.15554   0.10583
H          H       0.54126   0.00388   0.21864   0.10908
H          H       0.99460   0.04104   0.59978   0.10899
H          H       0.96516   0.00225   0.04047   0.12172
H          H       0.84987   0.08519   0.84170   0.10484
H          H       0.87886   0.12893   0.87016   0.12015
H          H       0.96757   0.18585   0.80229   0.11927
H          H       0.06564   0.09402   0.97456   0.10769
H          H       0.00550   0.22362   0.75134   0.10893
H          H       0.10108   0.13507   0.91937   0.11252
H          H       0.77319   0.06002   0.59369   0.10590
H          H       0.87611   0.94092   0.71262   0.12144
H          H       0.73878   0.03062   0.01941   0.10666
H          H       0.84373   0.90550   0.63979   0.10631
H          H       0.82617   0.05811   0.72135   0.10936
H          H       0.00783   0.08507   0.57359   0.10108
H          H       0.82209   0.87725   0.55512   0.10161
H          H       0.71283   0.00151   0.95798   0.10280
H          H       0.71576   0.88651   0.91406   0.10914
H          H       0.74851   0.81934   0.65902   0.11088
H          H       0.84801   0.82914   0.84456   0.10816
H          H       0.78653   0.74270   0.66541   0.12130
H          H       0.88527   0.75196   0.85440   0.10764
H          H       0.67258   0.91970   0.76335   0.10512
H          H       0.65128   0.02945   0.97857   0.10623
H          H       0.60222   0.95737   0.70155   0.10956
H          H       0.58194   0.06723   0.91287   0.11879
H          H       0.13656   0.15884   0.01554   0.10632
H          H       0.02066   0.26433   0.56605   0.10581
H          H       0.12556   0.28051   0.97373   0.10502
H          H       0.18615   0.23746   0.55984   0.11374
H          H       0.19187   0.14589   0.82452   0.10886
H          H       0.26044   0.20849   0.48749   0.10800
H          H       0.26627   0.11471   0.76318   0.11979
H          H       0.32009   0.16650   0.90406   0.10003
H          H       0.41440   0.04245   0.67017   0.12290
H          H       0.37198   0.16574   0.82453   0.11012
H          H       0.48478   0.02366   0.68254   0.10804
H          H       0.44211   0.14660   0.84107   0.12570
H          H       0.00121   0.31956   0.71799   0.11180
H          H       0.08489   0.33955   0.84580   0.11122
H          H       0.96093   0.39621   0.72523   0.10677
H          H       0.04412   0.41507   0.85964   0.11983
H          H       0.88958   0.69009   0.92129   0.10240
H          H       0.85585   0.59306   0.72093   0.12292
H          H       0.92865   0.63336   0.87391   0.10695
H          H       0.90346   0.51963   0.66981   0.10749
H          H       0.97534   0.56014   0.82563   0.11859
H          H       0.94940   0.46075   0.64221   0.10462
H          H       0.53974   0.01174   0.71024   0.10541
C          C       0.96409   0.05333   0.13677  -0.13281
C          C       0.94722   0.02921   0.11798  -0.11872
C          C       0.90684   0.03967   0.19272   0.06311
C          C       0.88463   0.07468   0.29238  -0.13093
C          C       0.90151   0.09884   0.31079  -0.11649
C          C       0.94145   0.08917   0.23145   0.06511
C          C       0.95756   0.11690   0.24602   0.00441
C          C       0.88897   0.01497   0.16105   0.00754
C          C       0.99461   0.11163   0.15981  -0.15188
C          C       0.84768   0.02895   0.18456  -0.15270
C          C       0.93090   0.15126   0.35007   0.24472
C          C       0.91723   0.97617   0.08522   0.23587
C          C       0.01371   0.13718   0.14268   0.09236
C          C       0.99655   0.17572   0.21769  -0.10535
C          C       0.05008   0.12111   0.52916  -0.12399
C          C       0.01675   0.19866   0.18585  -0.12814
C          C       0.07140   0.14294   0.49956  -0.13825
C          C       0.05481   0.18480   0.07935   0.06739
C          C       0.82743   0.00725   0.15318   0.09750
C          C       0.78798   0.03059   0.10443  -0.13498
C          C       0.84513   0.96336   0.16850  -0.11056
C          C       0.76869   0.01112   0.06050  -0.13105
C          C       0.82539   0.94417   0.12756  -0.12367
C          C       0.78735   0.96713   0.06664   0.07210
C          C       0.76800   0.94551   0.01658   0.07636
C          C       0.78849   0.90160   0.01814  -0.17742
C          C       0.73163   0.96106   0.46586  -0.17186
C          C       0.77309   0.87384   0.48589   0.07099
C          C       0.71236   0.94037   0.42842   0.07466
C          C       0.73331   0.89636   0.44429  -0.18207
C          C       0.79593   0.82761   0.49095   0.07345
C          C       0.77321   0.81086   0.07617  -0.13245
C          C       0.83552   0.80654   0.39898  -0.14171
C          C       0.79437   0.76733   0.08659  -0.10541
C          C       0.85693   0.76319   0.40005  -0.12350
C          C       0.84045   0.73868   0.49709   0.09313
C          C       0.67096   0.96374   0.37743   0.06879
C          C       0.65543   0.94378   0.30427  -0.14089
C          C       0.64445   0.00648   0.40648  -0.12130
C          C       0.61547   0.96489   0.26888  -0.12325
C          C       0.60456   0.02794   0.36971  -0.12401
C          C       0.58856   0.00744   0.30253   0.09569
C          C       0.07471   0.21071   0.04571   0.07476
C          C       0.11980   0.18603   0.50486  -0.18210
C          C       0.05068   0.25442   0.04876  -0.17988
C          C       0.13967   0.20984   0.47345   0.07423
C          C       0.06849   0.28001   0.02351   0.07419
C          C       0.11140   0.26099   0.99200  -0.17758
C          C       0.18469   0.19039   0.43863   0.06729
C          C       0.20113   0.21690   0.00355  -0.13899
C          C       0.20953   0.15279   0.35539  -0.12694
C          C       0.24615   0.19307   0.44755  -0.12422
C          C       0.25179   0.13566   0.31707  -0.10364
C          C       0.27115   0.15587   0.36047   0.09520
C          C       0.31438   0.14204   0.32725  -0.14369
C          C       0.34761   0.10837   0.24874   0.00392
C          C       0.34332   0.07902   0.17305   0.24279
C          C       0.38996   0.09928   0.24611   0.06527
C          C       0.42365   0.06302   0.17361  -0.12166
C          C       0.39855   0.12506   0.32102  -0.12904
C          C       0.46370   0.05223   0.18234  -0.12776
C          C       0.43846   0.11425   0.33028  -0.11814
C          C       0.47213   0.07703   0.26481   0.06060
C          C       0.04280   0.32584   0.02987   0.06697
C          C       0.00458   0.34426   0.13518  -0.13869
C          C       0.06132   0.34539   0.40862  -0.12644
C          C       0.98085   0.38745   0.14132  -0.12372
C          C       0.03873   0.38865   0.41172  -0.11145
C          C       0.99390   0.41459   0.04231   0.09148
C          C       0.86602   0.69371   0.48990  -0.14508
C          C       0.85529   0.66793   0.09414   0.00576
C          C       0.81987   0.67642   0.21718   0.24298
C          C       0.88493   0.62332   0.06608   0.06279
C          C       0.87734   0.59166   0.15571  -0.11943
C          C       0.92954   0.60416   0.43995  -0.12863
C          C       0.90431   0.54962   0.12763  -0.12629
C          C       0.95695   0.56235   0.41152  -0.12023
C          C       0.94043   0.53691   0.00887   0.06243
C          C       0.97864   0.48638   0.45625   0.00324
C          C       0.51371   0.06492   0.29253   0.00562
C          C       0.51710   0.09631   0.35763   0.24360
C          C       0.01206   0.48023   0.32475   0.24450
C          C       0.96703   0.45917   0.05825  -0.15136
C          C       0.54700   0.02572   0.26808  -0.15310
C          C       0.96259   0.05167   0.65048  -0.13260
C          C       0.94623   0.02705   0.63265  -0.11501
C          C       0.90502   0.03883   0.69649   0.06027
C          C       0.88134   0.07577   0.78438  -0.12907
C          C       0.89774   0.10048   0.80182  -0.11746
C          C       0.93858   0.08939   0.73252   0.06725
C          C       0.95495   0.11693   0.74585   0.00186
C          C       0.88829   0.01309   0.66481   0.00890
C          C       0.99155   0.11156   0.65426  -0.14946
C          C       0.84725   0.02615   0.68437  -0.15085
C          C       0.92960   0.15056   0.85444   0.24382
C          C       0.91745   0.97379   0.59399   0.23785
C          C       0.01194   0.13579   0.63752   0.09264
C          C       0.99639   0.17354   0.71614  -0.10889
C          C       0.05222   0.12309   0.03729  -0.12216
C          C       0.01778   0.19529   0.68522  -0.12728
C          C       0.07235   0.14618   0.00653  -0.13957
C          C       0.05553   0.18079   0.57594   0.06654
C          C       0.82819   0.00346   0.65091   0.09834
C          C       0.78884   0.02598   0.60144  -0.13302
C          C       0.84687   0.95947   0.66547  -0.11168
C          C       0.77032   0.00566   0.55815  -0.13181
C          C       0.82799   0.93942   0.62415  -0.12573
C          C       0.78968   0.96164   0.56515   0.07295
C          C       0.77071   0.93946   0.51676   0.07578
C          C       0.79148   0.89551   0.52037  -0.18021
C          C       0.72875   0.96758   0.96760  -0.17182
C          C       0.76985   0.88025   0.98281   0.07006
C          C       0.70938   0.94722   0.92819   0.07540
C          C       0.73014   0.90324   0.94080  -0.18238
C          C       0.79203   0.83404   0.99098   0.07536
C          C       0.77899   0.80357   0.58545  -0.13177
C          C       0.83298   0.81193   0.91326  -0.13925
C          C       0.80063   0.76008   0.58987  -0.10515
C          C       0.85391   0.76854   0.91928  -0.12288
C          C       0.83555   0.74499   0.00821   0.09669
C          C       0.66784   0.97097   0.87982   0.06938
C          C       0.65267   0.95162   0.80101  -0.13886
C          C       0.64121   0.01333   0.91516  -0.12333
C          C       0.61283   0.97300   0.76508  -0.12445
C          C       0.60126   0.03497   0.87918  -0.12064
C          C       0.58568   0.01506   0.80524   0.09400
C          C       0.07687   0.20529   0.54130   0.07372
C          C       0.11751   0.19271   0.01272  -0.17737
C          C       0.05392   0.24903   0.54469  -0.17837
C          C       0.13636   0.21743   0.98528   0.07490
C          C       0.07287   0.27358   0.51357   0.07609
C          C       0.11570   0.25350   0.47816  -0.17786
C          C       0.18144   0.19818   0.95242   0.06453
C          C       0.20411   0.20975   0.48672  -0.13943
C          C       0.20623   0.16074   0.86809  -0.12635
C          C       0.24336   0.19946   0.96787  -0.12154
C          C       0.24855   0.14320   0.83122  -0.10578
C          C       0.26829   0.16253   0.87865   0.09457
C          C       0.31178   0.14786   0.84628  -0.15067
C          C       0.34430   0.11457   0.76227  -0.00270
C          C       0.33887   0.08621   0.68544   0.24313
C          C       0.38700   0.10493   0.75460   0.06553
C          C       0.42025   0.06541   0.70865  -0.11831
C          C       0.39620   0.13415   0.79639  -0.13175
C          C       0.46031   0.05484   0.71580  -0.12643
C          C       0.43615   0.12357   0.80417  -0.12157
C          C       0.46918   0.08325   0.76855   0.06358
C          C       0.04841   0.31948   0.51732   0.06810
C          C       0.01149   0.33878   0.62969  -0.14087
C          C       0.05597   0.35271   0.93185  -0.12628
C          C       0.98889   0.38202   0.63407  -0.12235
C          C       0.03244   0.39586   0.93771  -0.10887
C          C       0.00170   0.40827   0.52544   0.09443
C          C       0.86080   0.69992   0.00774  -0.14641
C          C       0.86210   0.66108   0.57965  -0.00265
C          C       0.82802   0.66854   0.70908   0.24361
C          C       0.89219   0.61661   0.55006   0.06430
C          C       0.88418   0.58469   0.63288  -0.12218
C          C       0.92110   0.61055   0.94788  -0.13054
C          C       0.91159   0.54276   0.60401  -0.13010
C          C       0.94796   0.56864   0.91973  -0.11933
C          C       0.94871   0.53045   0.49225   0.06361
C          C       0.97010   0.49272   0.97359  -0.00059
C          C       0.51049   0.07181   0.79713   0.00400
C          C       0.51302   0.10312   0.86727   0.24161
C          C       0.00358   0.48666   0.84253   0.24509
C          C       0.97566   0.45289   0.54180  -0.14500
C          C       0.54440   0.03326   0.76816  -0.14867
N          N       0.90843   0.17844   0.44006  -0.35589
N          N       0.94161   0.94224   0.53202  -0.35408
N          N       0.34140   0.05433   0.10680  -0.35603
N          N       0.79150   0.68261   0.32177  -0.35615
N          N       0.03880   0.47618   0.21417  -0.35740
N          N       0.51415   0.12938   0.92542  -0.35332
N          N       0.90807   0.17730   0.94750  -0.35661
N          N       0.94130   0.94544   0.01724  -0.35386
N          N       0.33553   0.06265   0.61798  -0.35352
N          N       0.80093   0.67358   0.81920  -0.35652
N          N       0.03006   0.48307   0.73139  -0.35541
N          N       0.51891   0.12250   0.41276  -0.35297

