data_crystal

_audit_creation_method 'AiiDA-DDEC plugin'

_cell_length_a        47.65989
_cell_length_b        47.78035
_cell_length_c         9.21600

_cell_angle_alpha     79.07599
_cell_angle_beta     88.87182
_cell_angle_gamma     60.42201

_symmetry_space_group_name_Hall 'P 1'
_symmetry_space_group_name_H-M  'P 1'

loop_
_symmetry_equiv_pos_as_xyz
 'x,y,z'

loop_
_atom_site_label
_atom_site_type_symbol
_atom_site_fract_x
_atom_site_fract_y
_atom_site_fract_z
_atom_site_charge
H          H       0.32070   0.09011   0.51581   0.11127
H          H       0.37130   0.08947   0.45184   0.12705
H          H       0.34012   0.17427   0.14739   0.10410
H          H       0.29068   0.17438   0.21510   0.10133
H          H       0.26923   0.10707   0.44939   0.10630
H          H       0.22652   0.09737   0.11475   0.10589
H          H       0.18906   0.19218   0.23072   0.11857
H          H       0.23971   0.19150   0.16921   0.11231
H          H       0.37445   0.17965   0.05222   0.10825
H          H       0.18123   0.10936   0.09097   0.10227
H          H       0.45092   0.12324   0.35009   0.11952
H          H       0.40397   0.20045   0.11066   0.11625
H          H       0.49957   0.12803   0.35726   0.10707
H          H       0.45359   0.20371   0.11528   0.10154
H          H       0.10469   0.16272   0.27839   0.11595
H          H       0.15378   0.08667   0.51797   0.10627
H          H       0.05431   0.16230   0.23225   0.09913
H          H       0.10226   0.08882   0.47039   0.11277
H          H       0.93980   0.65921   0.30487   0.10222
H          H       0.01463   0.60242   0.15021   0.10539
H          H       0.93816   0.60993   0.27752   0.11738
H          H       0.01347   0.55286   0.12341   0.10733
H          H       0.99517   0.52566   0.01185   0.10545
H          H       0.94199   0.51560   0.15193   0.10891
H          H       0.01574   0.48125   0.92512   0.10719
H          H       0.95097   0.45959   0.17007   0.10854
H          H       0.02270   0.42601   0.95723   0.10823
H          H       0.00258   0.39205   0.22095   0.10167
H          H       0.92478   0.42934   0.94453   0.11224
H          H       0.00425   0.33897   0.27740   0.09787
H          H       0.92766   0.37579   0.00274   0.13032
H          H       0.01974   0.29057   0.39867   0.11279
H          H       0.96052   0.26617   0.10091   0.12298
H          H       0.04857   0.23637   0.37534   0.11689
H          H       0.96722   0.21181   0.11519   0.10909
H          H       0.05499   0.18182   0.39708   0.10628
H          H       0.01264   0.12146   0.33879   0.09733
H          H       0.07975   0.06770   0.22008   0.11167
H          H       0.00735   0.07330   0.32697   0.11242
H          H       0.07595   0.01862   0.20849   0.10808
H          H       0.05320   0.99231   0.11529   0.10850
H          H       0.06220   0.94618   0.07289   0.10715
H          H       0.98705   0.98854   0.28670   0.10645
H          H       0.05780   0.89653   0.12946   0.10712
H          H       0.98501   0.93708   0.33989   0.10542
H          H       0.95292   0.91599   0.12882   0.11327
H          H       0.03162   0.87490   0.39287   0.10038
H          H       0.94739   0.86681   0.16337   0.12957
H          H       0.02650   0.82576   0.41903   0.09572
H          H       0.03436   0.78016   0.50201   0.10669
H          H       0.97140   0.75709   0.20456   0.11534
H          H       0.04929   0.73652   0.39345   0.10618
H          H       0.97147   0.70713   0.17413   0.10072
H          H       0.04730   0.68784   0.35768   0.11157
H          H       0.96192   0.20558   0.33412   0.10826
H          H       0.99306   0.11869   0.17383   0.10410
H          H       0.90920   0.20977   0.29746   0.12291
H          H       0.93971   0.12403   0.15220   0.11435
H          H       0.88766   0.15120   0.06556   0.11041
H          H       0.85428   0.13708   0.03423   0.11310
H          H       0.80346   0.21913   0.20599   0.11334
H          H       0.80389   0.13693   0.09329   0.11145
H          H       0.75296   0.21940   0.26931   0.10681
H          H       0.76121   0.15813   0.24415   0.10790
H          H       0.70980   0.23883   0.42434   0.11421
H          H       0.71167   0.15656   0.30864   0.10871
H          H       0.65999   0.23743   0.48569   0.10638
H          H       0.62744   0.22172   0.44186   0.10621
H          H       0.60747   0.16255   0.23589   0.11663
H          H       0.57727   0.24169   0.33220   0.10887
H          H       0.55759   0.16100   0.19300   0.09928
H          H       0.52705   0.23999   0.29865   0.10784
H          H       0.96098   0.72928   0.35440   0.10148
H          H       0.92077   0.67214   0.08664   0.11237
H          H       0.90881   0.77795   0.33942   0.12398
H          H       0.86904   0.72287   0.07974   0.11267
H          H       0.83842   0.77994   0.03890   0.10937
H          H       0.78927   0.81400   0.01836   0.10703
H          H       0.80730   0.87444   0.22543   0.11370
H          H       0.73905   0.86076   0.06723   0.11136
H          H       0.75781   0.92151   0.27810   0.10721
H          H       0.71385   0.89853   0.19892   0.11164
H          H       0.73582   0.95942   0.40897   0.11175
H          H       0.66549   0.94598   0.25761   0.11453
H          H       0.68730   0.00733   0.45881   0.10976
H          H       0.64190   0.04286   0.45298   0.11014
H          H       0.57081   0.05521   0.19360   0.12277
H          H       0.61769   0.09730   0.39999   0.11685
H          H       0.52217   0.10890   0.16595   0.11107
H          H       0.57115   0.15188   0.38927   0.10413
H          H       0.06411   0.64496   0.14443   0.10893
H          H       0.02452   0.61600   0.32477   0.10085
H          H       0.11672   0.59760   0.13396   0.11767
H          H       0.07762   0.56714   0.32354   0.10646
H          H       0.13124   0.53428   0.39497   0.10621
H          H       0.16354   0.48449   0.45430   0.10537
H          H       0.22194   0.50627   0.16052   0.11435
H          H       0.21045   0.43320   0.41690   0.11036
H          H       0.26927   0.45573   0.11887   0.11072
H          H       0.24867   0.40994   0.26757   0.10749
H          H       0.30766   0.43281   0.96612   0.11138
H          H       0.29601   0.36086   0.21294   0.11148
H          H       0.35524   0.38281   0.92424   0.10562
H          H       0.39006   0.33529   0.96564   0.10560
H          H       0.40412   0.26699   0.24975   0.11822
H          H       0.44230   0.30317   0.04908   0.10733
H          H       0.45570   0.21554   0.28982   0.10123
H          H       0.49415   0.25145   0.08336   0.10471
H          H       0.30193   0.11454   0.89746   0.10450
H          H       0.35238   0.11348   0.83207   0.11250
H          H       0.32924   0.18980   0.50386   0.11356
H          H       0.27882   0.19046   0.56640   0.11017
H          H       0.27654   0.09697   0.05311   0.11295
H          H       0.21885   0.10858   0.51010   0.10200
H          H       0.20188   0.17620   0.79680   0.11454
H          H       0.25293   0.17450   0.73506   0.11295
H          H       0.37802   0.17331   0.56507   0.10752
H          H       0.18388   0.10448   0.60092   0.10400
H          H       0.44976   0.12148   0.87161   0.12151
H          H       0.40740   0.19445   0.63013   0.11544
H          H       0.49873   0.12565   0.87506   0.10845
H          H       0.45615   0.19939   0.63201   0.09846
H          H       0.10673   0.16259   0.77210   0.11635
H          H       0.15302   0.08892   0.01470   0.10823
H          H       0.05572   0.16332   0.72758   0.09843
H          H       0.10218   0.08939   0.96809   0.10926
H          H       0.93546   0.66070   0.81390   0.10501
H          H       0.01439   0.60237   0.66271   0.10449
H          H       0.93369   0.61167   0.78593   0.11864
H          H       0.01321   0.55275   0.63714   0.10296
H          H       0.99792   0.52492   0.51699   0.10557
H          H       0.91564   0.52373   0.76822   0.12488
H          H       0.99394   0.48504   0.58306   0.09510
H          H       0.92295   0.46851   0.79386   0.11474
H          H       0.00161   0.42998   0.60180   0.10307
H          H       0.02709   0.38158   0.88942   0.10727
H          H       0.95338   0.41734   0.61277   0.10447
H          H       0.03019   0.32779   0.95540   0.11261
H          H       0.95384   0.36470   0.66764   0.10847
H          H       0.01824   0.29166   0.89526   0.11268
H          H       0.96026   0.26659   0.59576   0.12288
H          H       0.04704   0.23769   0.86808   0.11762
H          H       0.96700   0.21206   0.61400   0.10862
H          H       0.05437   0.18274   0.89180   0.10867
H          H       0.01182   0.12142   0.83715   0.09928
H          H       0.08031   0.06759   0.72249   0.11044
H          H       0.00711   0.07304   0.82419   0.11307
H          H       0.07666   0.01843   0.70891   0.10635
H          H       0.05385   0.99233   0.61421   0.10954
H          H       0.03473   0.96320   0.72320   0.09514
H          H       0.96047   0.00399   0.92760   0.12169
H          H       0.03235   0.91210   0.77538   0.10257
H          H       0.95618   0.95408   0.98024   0.11328
H          H       0.98227   0.89740   0.78708   0.10664
H          H       0.05385   0.85764   0.05998   0.10674
H          H       0.97668   0.84808   0.81388   0.10856
H          H       0.04855   0.80837   0.10172   0.10944
H          H       0.02903   0.78311   0.00470   0.10506
H          H       0.97880   0.75298   0.71490   0.11297
H          H       0.04867   0.73604   0.91726   0.10934
H          H       0.97810   0.70339   0.68226   0.09743
H          H       0.04714   0.68719   0.88034   0.11362
H          H       0.96190   0.20511   0.83043   0.10788
H          H       0.99303   0.11820   0.67142   0.10274
H          H       0.90916   0.20923   0.79645   0.12272
H          H       0.94023   0.12280   0.64317   0.11306
H          H       0.88930   0.14793   0.54598   0.11228
H          H       0.84891   0.15787   0.63610   0.10414
H          H       0.79887   0.23775   0.79780   0.12632
H          H       0.79922   0.15748   0.69650   0.10307
H          H       0.74833   0.23740   0.85632   0.11206
H          H       0.76688   0.13702   0.64043   0.11420
H          H       0.71535   0.21563   0.81013   0.10198
H          H       0.71701   0.13517   0.69812   0.12429
H          H       0.66645   0.21349   0.87193   0.09847
H          H       0.62593   0.22232   0.96159   0.10696
H          H       0.60602   0.16690   0.73271   0.11681
H          H       0.57699   0.24147   0.85104   0.10724
H          H       0.55626   0.16487   0.69202   0.09863
H          H       0.52666   0.24004   0.81377   0.11068
H          H       0.95980   0.72867   0.83760   0.10344
H          H       0.92393   0.66923   0.58718   0.11046
H          H       0.90846   0.77848   0.81909   0.12554
H          H       0.87136   0.71874   0.58434   0.11266
H          H       0.83908   0.77560   0.54831   0.11014
H          H       0.80208   0.81326   0.62245   0.10458
H          H       0.82083   0.88037   0.79869   0.12296
H          H       0.75341   0.86039   0.67668   0.10203
H          H       0.77128   0.92701   0.85481   0.11151
H          H       0.70148   0.89615   0.63612   0.11198
H          H       0.72065   0.96102   0.81249   0.10353
H          H       0.65260   0.94428   0.68706   0.12558
H          H       0.67283   0.00822   0.87061   0.10395
H          H       0.64352   0.04432   0.96531   0.11258
H          H       0.56991   0.05497   0.69024   0.12406
H          H       0.61650   0.09895   0.89672   0.11753
H          H       0.52232   0.10940   0.66517   0.11045
H          H       0.56871   0.15280   0.88217   0.10439
H          H       0.06620   0.64584   0.63084   0.11157
H          H       0.02225   0.62076   0.81433   0.09961
H          H       0.11913   0.59858   0.62507   0.11888
H          H       0.07469   0.57120   0.81026   0.10764
H          H       0.12745   0.53583   0.89109   0.10762
H          H       0.16455   0.49823   0.83116   0.10053
H          H       0.22716   0.51806   0.57253   0.12592
H          H       0.21188   0.44879   0.78712   0.10114
H          H       0.27412   0.46689   0.53259   0.11165
H          H       0.24635   0.39491   0.87062   0.11189
H          H       0.30753   0.41437   0.60158   0.10124
H          H       0.29417   0.34445   0.82870   0.12383
H          H       0.35450   0.36558   0.54880   0.09905
H          H       0.39129   0.33679   0.44650   0.10870
H          H       0.40562   0.26924   0.73796   0.11795
H          H       0.44335   0.30493   0.52798   0.10716
H          H       0.45732   0.21795   0.77532   0.10075
H          H       0.49515   0.25302   0.56527   0.11002
C          C       0.29216   0.14438   0.06241   0.05294
C          C       0.32229   0.11217   0.51233  -0.12325
C          C       0.35105   0.11165   0.47710  -0.12201
C          C       0.35462   0.13922   0.47638   0.06749
C          C       0.33193   0.16142   0.08968  -0.12728
C          C       0.30352   0.16168   0.12812  -0.12866
C          C       0.26220   0.14437   0.10455   0.06407
C          C       0.25741   0.11809   0.09097  -0.12999
C          C       0.22882   0.11840   0.12606  -0.13572
C          C       0.20318   0.14528   0.17453   0.05951
C          C       0.20821   0.17118   0.19207  -0.12251
C          C       0.23701   0.17068   0.15785  -0.12405
C          C       0.38575   0.13790   0.44417   0.00110
C          C       0.17164   0.14713   0.20019  -0.00228
C          C       0.39519   0.15713   0.49776  -0.14013
C          C       0.16291   0.12710   0.14883  -0.15040
C          C       0.14968   0.17248   0.27232   0.25014
C          C       0.40579   0.11436   0.35947   0.23938
C          C       0.42480   0.15866   0.48902   0.09899
C          C       0.45168   0.13990   0.41321  -0.11074
C          C       0.42460   0.18419   0.05711  -0.12385
C          C       0.47932   0.14272   0.41685  -0.12555
C          C       0.45267   0.18596   0.06069  -0.12587
C          C       0.48162   0.16448   0.49388   0.06897
C          C       0.13287   0.12665   0.14518   0.09883
C          C       0.10442   0.14684   0.20898  -0.11679
C          C       0.13143   0.10499   0.06372  -0.13110
C          C       0.07598   0.14669   0.18296  -0.12463
C          C       0.10279   0.10520   0.03715  -0.13418
C          C       0.07392   0.12723   0.09089   0.07362
C          C       0.04290   0.12998   0.04813  -0.03610
C          C       0.01383   0.15980   0.02063  -0.01470
C          C       0.97797   0.63450   0.48153   0.07217
C          C       0.95592   0.63573   0.37736  -0.12933
C          C       0.99723   0.60442   0.06892  -0.12358
C          C       0.95496   0.60787   0.36226  -0.11080
C          C       0.99668   0.57643   0.05276  -0.13376
C          C       0.97629   0.57695   0.45270   0.10159
C          C       0.97863   0.54608   0.44190  -0.15494
C          C       0.96116   0.53876   0.35471   0.00566
C          C       0.96759   0.50478   0.36452   0.05304
C          C       0.93516   0.56346   0.24998   0.24521
C          C       0.95577   0.49669   0.24940  -0.13273
C          C       0.98492   0.47983   0.49013  -0.13047
C          C       0.96076   0.46502   0.25973  -0.12437
C          C       0.98917   0.44856   0.50164  -0.13463
C          C       0.97685   0.44064   0.38788   0.06718
C          C       0.97836   0.40839   0.41431   0.06531
C          C       0.99240   0.38588   0.32035  -0.13262
C          C       0.94791   0.40729   0.94338  -0.12111
C          C       0.99350   0.35563   0.35334  -0.12635
C          C       0.94952   0.37694   0.97784  -0.11853
C          C       0.98000   0.34717   0.47994   0.05942
C          C       0.97980   0.31573   0.02069  -0.00361
C          C       0.00166   0.28808   0.46560  -0.14647
C          C       0.95585   0.31594   0.11650   0.23445
C          C       0.00406   0.25616   0.48499   0.10265
C          C       0.98136   0.24819   0.05549  -0.10987
C          C       0.03055   0.23122   0.42873  -0.12250
C          C       0.98520   0.21719   0.06411  -0.12464
C          C       0.03417   0.20022   0.44043  -0.12599
C          C       0.01158   0.19235   0.00780   0.06971
C          C       0.04436   0.09901   0.03352   0.07933
C          C       0.02589   0.09896   0.42162  -0.12530
C          C       0.06402   0.06887   0.13259  -0.13278
C          C       0.02293   0.07187   0.41560  -0.12035
C          C       0.06184   0.04116   0.12592  -0.13011
C          C       0.03997   0.04219   0.02051   0.09294
C          C       0.03616   0.01364   0.03276  -0.14626
C          C       0.01351   0.01010   0.46532   0.00064
C          C       0.01147   0.97927  -0.00217   0.06524
C          C       0.98894   0.03591   0.35749   0.25054
C          C       0.03873   0.94826   0.05388  -0.13168
C          C       0.99738   0.97171   0.39326  -0.13070
C          C       0.03625   0.91992   0.08442  -0.13036
C          C       0.99628   0.94263   0.42308  -0.12771
C          C       0.00654   0.92106   0.06012   0.05484
C          C       0.00370   0.89115   0.08851   0.05020
C          C       0.97394   0.89268   0.11929  -0.12085
C          C       0.01989   0.86882   0.48617  -0.13372
C          C       0.97075   0.86480   0.14034  -0.11541
C          C       0.02733   0.83203   0.10506  -0.13286
C          C       0.99725   0.83396   0.13057   0.06459
C          C       0.99293   0.80503   0.14371  -0.00199
C          C       0.01126   0.77997   0.07160  -0.14375
C          C       0.96762   0.80578   0.23073   0.23113
C          C       0.01002   0.75072   0.06308   0.10207
C          C       0.98826   0.74179   0.13451  -0.10838
C          C       0.03367   0.72930   0.45787  -0.13624
C          C       0.98812   0.71376   0.11670  -0.12380
C          C       0.03254   0.70178   0.43751  -0.12886
C          C       0.00862   0.69371   0.02257   0.07137
C          C       0.00913   0.66390   0.49102  -0.03027
C          C       0.97956   0.66468   0.48365  -0.01954
C          C       0.98220   0.16138   0.50474   0.06688
C          C       0.95736   0.18710   0.40029  -0.12918
C          C       0.97473   0.13889   0.09307  -0.12740
C          C       0.92730   0.18964   0.38022  -0.11195
C          C       0.94453   0.14171   0.07933  -0.11587
C          C       0.92018   0.16655   0.46720   0.10655
C          C       0.88946   0.16745   0.46333  -0.14138
C          C       0.86057   0.18881   0.38010   0.00710
C          C       0.83060   0.18783   0.41428   0.06587
C          C       0.85743   0.21372   0.25796   0.24419
C          C       0.83120   0.15945  -0.00222  -0.13262
C          C       0.80266   0.20560   0.31377  -0.12460
C          C       0.80271   0.15932   0.03131  -0.12784
C          C       0.77400   0.20592   0.35013  -0.13038
C          C       0.77219   0.18816   0.48703   0.05106
C          C       0.74221   0.18707   0.02231   0.06058
C          C       0.74047   0.17019   0.16200  -0.13018
C          C       0.71147   0.21593   0.48238  -0.13026
C          C       0.71231   0.16948   0.19894  -0.12579
C          C       0.68331   0.21509   0.51678  -0.13590
C          C       0.68475   0.18535   0.09652   0.05887
C          C       0.65551   0.18287   0.13118   0.00522
C          C       0.62642   0.20289   0.04736  -0.15622
C          C       0.65973   0.15738   0.25297   0.25100
C          C       0.59671   0.20175   0.04401   0.09948
C          C       0.59029   0.17933   0.14195  -0.11549
C          C       0.57263   0.22494   0.41294  -0.13166
C          C       0.56206   0.17865   0.11914  -0.12720
C          C       0.54438   0.22381   0.39324  -0.13339
C          C       0.53878   0.19970  -0.00004   0.07296
C          C       0.50973   0.19780   0.47104  -0.03975
C          C       0.51130   0.16740   0.49419  -0.01511
C          C       0.94746   0.69489   0.47300   0.06261
C          C       0.94138   0.72647   0.40185  -0.11789
C          C       0.91841   0.69546   0.03079  -0.13648
C          C       0.91140   0.75447   0.39407  -0.11076
C          C       0.88892   0.72417   0.02477  -0.13015
C          C       0.88523   0.75267   0.46095   0.10895
C          C       0.85375   0.78085   0.46744  -0.15683
C          C       0.84008   0.81275   0.38972   0.01789
C          C       0.80896   0.83999   0.41946   0.06351
C          C       0.85585   0.82193   0.27234   0.24179
C          C       0.78576   0.83864   0.98301  -0.13580
C          C       0.79558   0.87123   0.32469  -0.12316
C          C       0.75722   0.86519   0.01139  -0.13055
C          C       0.76768   0.89802   0.35575  -0.12373
C          C       0.75165   0.89503   0.48273   0.05727
C          C       0.72158   0.92587   0.00164   0.05794
C          C       0.70487   0.92243   0.12542  -0.12698
C          C       0.71742   0.95589   0.46772  -0.12767
C          C       0.67755   0.94940   0.15977  -0.12078
C          C       0.68970   0.98319   0.49620  -0.13552
C          C       0.66556   0.98114   0.07135   0.06303
C          C       0.63618   0.00948   0.10692   0.01618
C          C       0.62662   0.04138   0.03930  -0.15510
C          C       0.61810   0.00188   0.21670   0.24373
C          C       0.59767   0.07218   0.04405   0.10649
C          C       0.57052   0.07623   0.12223  -0.11584
C          C       0.59684   0.09980   0.45931  -0.12448
C          C       0.54283   0.10694   0.10689  -0.12633
C          C       0.57018   0.13076   0.45055  -0.12782
C          C       0.54069   0.13545   0.01642   0.06389
C          C       0.04068   0.63472   0.48029   0.06936
C          C       0.06633   0.62916   0.06906  -0.12006
C          C       0.04505   0.61184   0.39296  -0.12758
C          C       0.09635   0.60197   0.06388  -0.12580
C          C       0.07502   0.58430   0.39246  -0.12951
C          C       0.10285   0.57839   0.47513   0.09308
C          C       0.13310   0.54911   0.46680  -0.15247
C          C       0.16117   0.53751   0.02494   0.00649
C          C       0.18922   0.50657  -0.00017   0.06444
C          C       0.16859   0.55423   0.11731   0.24406
C          C       0.18766   0.48120   0.46815  -0.13630
C          C       0.21957   0.49379   0.07818  -0.12518
C          C       0.21426   0.45206   0.44730  -0.13271
C          C       0.24651   0.46528   0.05338  -0.12729
C          C       0.24607   0.44621   0.46818   0.06253
C          C       0.27426   0.41631   0.43812   0.05713
C          C       0.27177   0.40010   0.33064  -0.12731
C          C       0.30452   0.41332   0.93860  -0.13177
C          C       0.29866   0.37243   0.29869  -0.12623
C          C       0.33172   0.37560   0.48274  -0.13424
C          C       0.32930   0.35957   0.37389   0.06430
C          C       0.35754   0.32953   0.34339   0.00233
C          C       0.38875   0.31983   0.39113  -0.15705
C          C       0.35047   0.31034   0.26566   0.24971
C          C       0.41898   0.28997   0.39070   0.09613
C          C       0.42357   0.26420   0.32105  -0.12104
C          C       0.44549   0.28460   0.98768  -0.12676
C          C       0.45290   0.23509   0.34261  -0.11806
C          C       0.47481   0.25540   0.00726  -0.13511
C          C       0.47918   0.22960   0.43437   0.07368
C          C       0.29568   0.14026   0.54760   0.05749
C          C       0.31043   0.12725   0.95467  -0.12779
C          C       0.33896   0.12691   0.91616  -0.12571
C          C       0.35054   0.14381   0.98367   0.06459
C          C       0.32787   0.16759   0.50871  -0.13463
C          C       0.29918   0.16800   0.54406  -0.12904
C          C       0.26537   0.14065   0.58741   0.05794
C          C       0.25517   0.12156   0.52919  -0.13002
C          C       0.22632   0.12243   0.56436  -0.13423
C          C       0.20624   0.14207   0.66130   0.06017
C          C       0.21657   0.16089   0.72086  -0.12709
C          C       0.24538   0.16020   0.68442  -0.13339
C          C       0.38186   0.14172   0.94851   0.00709
C          C       0.17474   0.14430   0.69370  -0.00009
C          C       0.39204   0.16109   0.99543  -0.14600
C          C       0.16533   0.12402   0.64997  -0.15326
C          C       0.15371   0.16983   0.76728   0.24895
C          C       0.40147   0.11734   0.86650   0.24573
C          C       0.42238   0.16108   0.98886   0.10158
C          C       0.45011   0.13971   0.92508  -0.11348
C          C       0.42735   0.18013   0.56794  -0.11808
C          C       0.47803   0.14202   0.92755  -0.12145
C          C       0.45497   0.18279   0.57020  -0.12602
C          C       0.48008   0.16538   0.99386   0.06345
C          C       0.13456   0.12500   0.64518   0.09634
C          C       0.10610   0.14642   0.70530  -0.11690
C          C       0.13236   0.10342   0.56574  -0.13043
C          C       0.07728   0.14688   0.68040  -0.12401
C          C       0.10325   0.10458   0.53874  -0.13975
C          C       0.07454   0.12721   0.59151   0.07288
C          C       0.04332   0.13002   0.55066  -0.03801
C          C       0.01403   0.15966   0.52298  -0.01472
C          C       0.97602   0.63536   0.97912   0.07360
C          C       0.95271   0.63694   0.88092  -0.12994
C          C       0.99795   0.60405   0.57732  -0.12707
C          C       0.95185   0.60910   0.86464  -0.10790
C          C       0.99733   0.57604   0.56227  -0.13366
C          C       0.97453   0.57777   0.94757   0.10052
C          C       0.97661   0.54711   0.93487  -0.14574
C          C       0.95897   0.54055   0.84446  -0.00389
C          C       0.96473   0.50694   0.85105   0.06130
C          C       0.93245   0.56576   0.74364   0.23777
C          C       0.93912   0.50240   0.81087  -0.11767
C          C       0.99509   0.47862   0.89918  -0.13512
C          C       0.94323   0.47108   0.82665  -0.12403
C          C       0.99908   0.44723   0.91543  -0.13062
C          C       0.97298   0.44269   0.88327   0.05627
C          C       0.97562   0.41000   0.91206   0.05021
C          C       0.00516   0.38063   0.91528  -0.12983
C          C       0.96482   0.39999   0.54021  -0.13020
C          C       0.00690   0.35008   0.95016  -0.12745
C          C       0.96516   0.37022   0.57134  -0.12620
C          C       0.97908   0.34763   0.98200   0.06597
C          C       0.98037   0.31546   0.51776   0.00715
C          C       0.00110   0.28854   0.96721  -0.13713
C          C       0.95717   0.31523   0.61751   0.24305
C          C       0.00371   0.25649   0.98599   0.10386
C          C       0.98129   0.24830   0.55266  -0.11300
C          C       0.02970   0.23200   0.92537  -0.12170
C          C       0.98513   0.21726   0.56343  -0.12574
C          C       0.03365   0.20083   0.93709  -0.12471
C          C       0.01169   0.19218   0.50938   0.06529
C          C       0.04495   0.09898   0.53598   0.07478
C          C       0.02523   0.09890   0.91963  -0.12519
C          C       0.06455   0.06880   0.63494  -0.13358
C          C       0.02256   0.07167   0.91323  -0.11559
C          C       0.06235   0.04114   0.62752  -0.13339
C          C       0.04024   0.04238   0.52267   0.09506
C          C       0.03636   0.01389   0.53405  -0.15471
C          C       0.01299   0.01001   0.96545  -0.01298
C          C       0.01199   0.97934   0.49909   0.05649
C          C       0.98726   0.03667   0.86513   0.24668
C          C       0.02445   0.95735   0.63719  -0.13191
C          C       0.98183   0.98044   0.97268  -0.11889
C          C       0.02278   0.92857   0.66759  -0.13179
C          C       0.97944   0.95212   0.00362  -0.12131
C          C       0.00892   0.92055   0.56047   0.06834
C          C       0.00735   0.88985   0.58751   0.06323
C          C       0.99235   0.88150   0.70739  -0.12736
C          C       0.03040   0.86000   0.08376  -0.13089
C          C       0.98914   0.85361   0.72239  -0.12798
C          C       0.01724   0.84074   0.50236  -0.13034
C          C       0.00152   0.83267   0.62027   0.05795
C          C       0.99719   0.80367   0.63395   0.00681
C          C       0.01554   0.77814   0.56442  -0.15253
C          C       0.97179   0.80457   0.72082   0.24043
C          C       0.01385   0.74910   0.55541   0.10333
C          C       0.99378   0.73898   0.63616  -0.11253
C          C       0.03168   0.72977   0.97418  -0.13276
C          C       0.99331   0.71111   0.61788  -0.12697
C          C       0.03095   0.70207   0.95388  -0.12867
C          C       0.01163   0.69246   0.51499   0.07247
C          C       0.00677   0.66506   0.99564  -0.02595
C          C       0.97739   0.66555   0.98284  -0.02211
C          C       0.98204   0.16148   0.00393   0.06829
C          C       0.95726   0.18689   0.89863  -0.12771
C          C       0.97482   0.13852   0.59070  -0.12565
C          C       0.92717   0.18943   0.88059  -0.11060
C          C       0.94485   0.14098   0.57326  -0.11847
C          C       0.91988   0.16702   0.97259   0.10614
C          C       0.88879   0.16862   0.97352  -0.13934
C          C       0.86052   0.18895   0.88472   0.00160
C          C       0.83046   0.18785   0.91516   0.06384
C          C       0.85801   0.21293   0.75936   0.23928
C          C       0.82854   0.17045   0.55211  -0.12664
C          C       0.80002   0.21562   0.86289  -0.12392
C          C       0.80017   0.17030   0.58714  -0.13169
C          C       0.77151   0.21535   0.89591  -0.12439
C          C       0.77220   0.18735   0.98264   0.05858
C          C       0.74219   0.18784   0.52547   0.06851
C          C       0.74344   0.15907   0.60630  -0.12412
C          C       0.71445   0.20340   0.92097  -0.13095
C          C       0.71533   0.15802   0.63913  -0.12440
C          C       0.68655   0.20225   0.95676  -0.13145
C          C       0.68465   0.18593   0.59315   0.05943
C          C       0.65498   0.18398   0.62193  -0.00306
C          C       0.62657   0.20400   0.53325  -0.15181
C          C       0.65831   0.15882   0.74337   0.24430
C          C       0.59637   0.20373   0.53192   0.09821
C          C       0.58938   0.18258   0.63572  -0.11537
C          C       0.57258   0.22404   0.92808  -0.13307
C          C       0.56132   0.18152   0.61422  -0.12967
C          C       0.54428   0.22318   0.90646  -0.13575
C          C       0.53870   0.20102   0.49143   0.07662
C          C       0.50939   0.19753   0.97523  -0.03716
C          C       0.51011   0.16755   0.99456  -0.01603
C          C       0.94534   0.69607   0.96700   0.06327
C          C       0.93998   0.72688   0.88855  -0.11631
C          C       0.92087   0.69304   0.53470  -0.13634
C          C       0.91048   0.75555   0.87833  -0.10845
C          C       0.89094   0.72110   0.53151  -0.13295
C          C       0.88409   0.75510   0.94914   0.10660
C          C       0.85321   0.78411   0.95527  -0.15182
C          C       0.84042   0.81587   0.87735   0.01432
C          C       0.80946   0.84343   0.90684   0.06513
C          C       0.85642   0.82478   0.76044   0.23426
C          C       0.79247   0.83672   0.54462  -0.13590
C          C       0.80303   0.87598   0.85876  -0.11580
C          C       0.76456   0.86354   0.57533  -0.12710
C          C       0.77473   0.90238   0.88929  -0.12236
C          C       0.75109   0.89774   0.96673   0.06367
C          C       0.72256   0.92376   0.51658   0.06346
C          C       0.69861   0.92045   0.59729  -0.12455
C          C       0.70934   0.95765   0.91286  -0.13059
C          C       0.67077   0.94772   0.62552  -0.12037
C          C       0.68201   0.98454   0.94622  -0.13116
C          C       0.66548   0.97979   0.57448   0.06326
C          C       0.63560   0.00843   0.60453   0.01334
C          C       0.62591   0.04014   0.53367  -0.15366
C          C       0.61723   0.00136   0.71443   0.24227
C          C       0.59759   0.07122   0.54217   0.10522
C          C       0.57032   0.07582   0.62067  -0.11816
C          C       0.59595   0.10090   0.95720  -0.12216
C          C       0.54324   0.10695   0.60707  -0.12320
C          C       0.56854   0.13142   0.94567  -0.12933
C          C       0.54188   0.13531   0.51848   0.06414
C          C       0.03850   0.63623   0.98338   0.06733
C          C       0.06859   0.62898   0.56103  -0.12175
C          C       0.04275   0.61493   0.88770  -0.12881
C          C       0.09878   0.60188   0.55862  -0.12638
C          C       0.07240   0.58717   0.88519  -0.13206
C          C       0.10024   0.57972   0.97328   0.09680
C          C       0.13020   0.55019   0.96280  -0.15337
C          C       0.16368   0.53726   0.53092   0.00127
C          C       0.19163   0.50591   0.51083   0.06535
C          C       0.17083   0.55491   0.61852   0.24067
C          C       0.18717   0.48910   0.89696  -0.13543
C          C       0.22340   0.49964   0.53679  -0.12329
C          C       0.21412   0.46068   0.87230  -0.12894
C          C       0.24994   0.47054   0.51547  -0.12283
C          C       0.24454   0.44806   0.94947   0.05494
C          C       0.27308   0.41791   0.92307   0.06506
C          C       0.27019   0.39244   0.88203  -0.12537
C          C       0.30494   0.40335   0.51341  -0.13011
C          C       0.29725   0.36377   0.85907  -0.12183
C          C       0.33158   0.38481   0.91498  -0.13520
C          C       0.32866   0.35920   0.87555   0.06084
C          C       0.35729   0.32876   0.85007   0.00115
C          C       0.38824   0.31916   0.90170  -0.15369
C          C       0.35091   0.30926   0.77130   0.24437
C          C       0.41891   0.28998   0.89724   0.09233
C          C       0.42445   0.26557   0.81616  -0.11968
C          C       0.44607   0.28546   0.47388  -0.12971
C          C       0.45387   0.23655   0.83629  -0.11818
C          C       0.47529   0.25615   0.49538  -0.14001
C          C       0.47931   0.22982   0.93733   0.07236
N          N       0.13208   0.19347   0.33204  -0.36756
N          N       0.42101   0.09516   0.28683  -0.35046
N          N       0.91367   0.58259   0.16176  -0.35517
N          N       0.93605   0.31785   0.19779  -0.34552
N          N       0.96817   0.05619   0.26864  -0.36445
N          N       0.94709   0.80719   0.30612  -0.32308
N          N       0.85389   0.23388   0.15383  -0.35554
N          N       0.66389   0.13659   0.35525  -0.36787
N          N       0.86724   0.83072   0.17285  -0.34641
N          N       0.60443   0.99489   0.31090  -0.35430
N          N       0.17587   0.56705   0.19357  -0.35821
N          N       0.34388   0.29523   0.20066  -0.36912
N          N       0.13723   0.19050   0.83097  -0.36646
N          N       0.41649   0.09757   0.79605  -0.35356
N          N       0.91045   0.58523   0.65858  -0.35102
N          N       0.93817   0.31669   0.70283  -0.35391
N          N       0.96555   0.05777   0.78287  -0.35822
N          N       0.95102   0.80609   0.79483  -0.33216
N          N       0.85509   0.23227   0.65273  -0.35117
N          N       0.66195   0.13830   0.84608  -0.36047
N          N       0.86779   0.83346   0.66051  -0.33718
N          N       0.60321   0.99492   0.80850  -0.35247
N          N       0.17803   0.56832   0.69167  -0.35741
N          N       0.34498   0.29398   0.70447  -0.36365

