data_crystal

_audit_creation_method 'AiiDA-DDEC plugin'

_cell_length_a        25.72645
_cell_length_b        25.98806
_cell_length_c        10.19796

_cell_angle_alpha     90.52955
_cell_angle_beta     90.29303
_cell_angle_gamma     120.46995

_symmetry_space_group_name_Hall 'P 1'
_symmetry_space_group_name_H-M  'P 1'

loop_
_symmetry_equiv_pos_as_xyz
 'x,y,z'

loop_
_atom_site_label
_atom_site_type_symbol
_atom_site_fract_x
_atom_site_fract_y
_atom_site_fract_z
_atom_site_charge
H          H       0.55029   0.19900   0.00737   0.11017
H          H       0.80280   0.34216   0.03112   0.11259
H          H       0.65304   0.44989   0.00560   0.11096
H          H       0.49689   0.08776   0.98852   0.11704
H          H       0.91489   0.40351   0.01415   0.11399
H          H       0.59545   0.50353   0.98981   0.11497
H          H       0.64519   0.19347   0.35083   0.11201
H          H       0.80674   0.46228   0.32969   0.11500
H          H       0.54355   0.34926   0.33002   0.11521
H          H       0.44004   0.79617   0.17252   0.10773
H          H       0.21183   0.64704   0.17613   0.11248
H          H       0.36704   0.57042   0.18446   0.10789
H          H       0.49253   0.90426   0.20794   0.11335
H          H       0.10275   0.59372   0.21258   0.11465
H          H       0.42137   0.51721   0.21767   0.10995
H          H       0.40224   0.92194   0.33894   0.12065
H          H       0.07145   0.48724   0.35613   0.11886
H          H       0.51399   0.58937   0.36583   0.11824
H          H       0.35440   0.81276   0.30046   0.10970
H          H       0.18142   0.54743   0.31720   0.10801
H          H       0.45916   0.64247   0.32270   0.10819
H          H       0.51867   0.99138   0.23305   0.06556
H          H       0.01089   0.54067   0.22614   0.07043
H          H       0.46850   0.47446   0.22064   0.06716
H          H       0.72291   0.27801   0.19375   0.11243
H          H       0.72276   0.44318   0.17137   0.11122
H          H       0.55483   0.27613   0.17345   0.11318
H          H       0.26997   0.75523   0.38745   0.13074
H          H       0.27172   0.75700   0.55964   0.13509
H          H       0.21220   0.69493   0.47434   0.13049
H          H       0.48865   0.72639   0.50095   0.13600
H          H       0.48027   0.78686   0.44825   0.12979
H          H       0.47269   0.73187   0.33488   0.13485
H          H       0.30044   0.52035   0.46612   0.13191
H          H       0.23183   0.51640   0.42222   0.13033
H          H       0.25262   0.52221   0.58808   0.13537
H          H       0.91854   0.52165   0.31668   0.11087
H          H       0.59020   0.08254   0.33462   0.10732
H          H       0.48757   0.40410   0.31692   0.10971
H          H       0.52968   0.19839   0.54391   0.11164
H          H       0.79229   0.35360   0.50258   0.11045
H          H       0.64474   0.44867   0.52502   0.11155
H          H       0.48085   0.08857   0.50598   0.11642
H          H       0.90432   0.41060   0.48377   0.11339
H          H       0.58477   0.49897   0.50127   0.11515
H          H       0.66279   0.19445   0.79442   0.11333
H          H       0.80540   0.45402   0.85191   0.11293
H          H       0.53001   0.34348   0.83930   0.11499
H          H       0.43671   0.79878   0.65589   0.10909
H          H       0.20546   0.63865   0.68602   0.11117
H          H       0.35706   0.56901   0.67361   0.10998
H          H       0.48665   0.90697   0.69045   0.11372
H          H       0.09638   0.58137   0.72196   0.11329
H          H       0.40841   0.51334   0.71185   0.11332
H          H       0.41550   0.92352   0.84964   0.11895
H          H       0.07562   0.48410   0.87085   0.11851
H          H       0.51389   0.58520   0.85369   0.11914
H          H       0.36545   0.81436   0.80943   0.10604
H          H       0.18562   0.54146   0.82856   0.10991
H          H       0.45604   0.63665   0.81700   0.11061
H          H       0.54271   0.99647   0.65577   0.06761
H          H       0.00675   0.52794   0.73495   0.06725
H          H       0.45021   0.46400   0.71152   0.06731
H          H       0.71949   0.28137   0.67451   0.10986
H          H       0.71402   0.44372   0.68839   0.11306
H          H       0.54866   0.27388   0.69427   0.11096
H          H       0.28251   0.76549   0.01708   0.13650
H          H       0.21920   0.69618   0.96606   0.12939
H          H       0.27263   0.74325   0.85095   0.13173
H          H       0.47888   0.75010   0.85060   0.13572
H          H       0.49133   0.71286   0.98060   0.13170
H          H       0.48980   0.77942   0.01097   0.13010
H          H       0.30334   0.51866   0.97268   0.13265
H          H       0.23253   0.51400   0.95432   0.12812
H          H       0.26557   0.52500   0.11063   0.13578
H          H       0.91709   0.50807   0.83722   0.10891
H          H       0.61482   0.08534   0.75395   0.10915
H          H       0.47042   0.39375   0.81535   0.10974
C          C       0.36671   0.63956   0.47401  -0.06965
C          C       0.36093   0.73065   0.46439  -0.07122
C          C       0.26869   0.63366   0.48050  -0.07065
C          C       0.40253   0.60949   0.49348   0.07400
C          C       0.39162   0.79709   0.47558   0.07852
C          C       0.20210   0.59733   0.49919   0.08193
C          C       0.39828   0.57281   0.10994  -0.12293
C          C       0.43543   0.82391   0.09937  -0.12984
C          C       0.18186   0.61201   0.10737  -0.12596
C          C       0.42952   0.54281   0.12879  -0.17751
C          C       0.46479   0.88532   0.12017  -0.17599
C          C       0.12001   0.58149   0.12811  -0.17491
C          C       0.47219   0.54718   0.03663   0.19276
C          C       0.45710   0.92226   0.03125   0.19504
C          C       0.08079   0.53410   0.04357   0.19107
C          C       0.47897   0.58468   0.43244  -0.15893
C          C       0.40985   0.89445   0.40724  -0.16110
C          C       0.10124   0.52052   0.42815  -0.16117
C          C       0.44823   0.61519   0.40953  -0.13307
C          C       0.38256   0.83296   0.38717  -0.12916
C          C       0.16318   0.55405   0.40753  -0.13415
C          C       0.50152   0.48558   0.14195   0.07094
C          C       0.51238   0.01324   0.14754   0.07396
C          C       0.98913   0.50532   0.15067   0.07040
C          C       0.53762   0.45699   0.15156   0.04743
C          C       0.54080   0.07802   0.15901   0.04938
C          C       0.92393   0.46720   0.16222   0.04785
C          C       0.52332   0.41342   0.24775  -0.12514
C          C       0.58224   0.10830   0.26196  -0.12493
C          C       0.89297   0.48300   0.25235  -0.12472
C          C       0.55450   0.38263   0.25497  -0.14373
C          C       0.61316   0.17043   0.27098  -0.14080
C          C       0.83034   0.44971   0.25987  -0.13925
C          C       0.60189   0.39591   0.16846   0.06913
C          C       0.60184   0.20368   0.17926   0.06911
C          C       0.79711   0.39858   0.18030   0.06642
C          C       0.61711   0.44054   0.07418  -0.14034
C          C       0.55861   0.17316   0.07909  -0.14110
C          C       0.82839   0.38137   0.09391  -0.13887
C          C       0.58519   0.47032   0.06484  -0.10294
C          C       0.52895   0.11138   0.06792  -0.10776
C          C       0.89072   0.41544   0.08375  -0.10454
C          C       0.63512   0.36343   0.17526   0.07700
C          C       0.63510   0.26966   0.18400   0.07766
C          C       0.73051   0.36447   0.18369   0.07523
C          C       0.69834   0.39471   0.17690  -0.19177
C          C       0.60389   0.30086   0.17776  -0.19124
C          C       0.69837   0.30190   0.18884  -0.19130
C          C       0.39563   0.70246   0.45966   0.08588
C          C       0.29725   0.69638   0.47281   0.08558
C          C       0.30303   0.60498   0.48091   0.08539
C          C       0.26061   0.72714   0.47378  -0.42490
C          C       0.46284   0.73899   0.43616  -0.42615
C          C       0.27062   0.53757   0.48939  -0.42789
C          C       0.37147   0.63811   0.98304  -0.07050
C          C       0.36725   0.72993   0.97345  -0.06893
C          C       0.27406   0.63324   0.98299  -0.07103
C          C       0.40672   0.60736  -0.00214   0.07438
C          C       0.39863   0.79633   0.98768   0.07890
C          C       0.20737   0.59849   0.00003   0.08270
C          C       0.39030   0.57245   0.60326  -0.12273
C          C       0.43006   0.82580   0.58427  -0.12859
C          C       0.17616   0.60583   0.61259  -0.12850
C          C       0.41981   0.54094   0.62526  -0.17774
C          C       0.45855   0.88722   0.60344  -0.18141
C          C       0.11425   0.57319   0.63290  -0.17684
C          C       0.46501   0.54616   0.53940   0.19231
C          C       0.44871   0.92292   0.51500   0.19164
C          C       0.07536   0.52940   0.54104   0.19266
C          C       0.48118   0.58206   0.92513  -0.16190
C          C       0.42072   0.89502   0.91951  -0.16025
C          C       0.10610   0.52030   0.93661  -0.15930
C          C       0.44891   0.61124   0.90580  -0.13076
C          C       0.39234   0.83351   0.89806  -0.13406
C          C       0.16794   0.55222   0.91451  -0.13309
C          C       0.48730   0.47831   0.64155   0.07238
C          C       0.51917   0.01602   0.60468   0.06756
C          C       0.98383   0.49807   0.65044   0.07416
C          C       0.52342   0.44973   0.65591   0.04667
C          C       0.54465   0.07979   0.62738   0.04859
C          C       0.91815   0.46340   0.65871   0.04676
C          C       0.50834   0.40543   0.75087  -0.12312
C          C       0.59627   0.11038   0.70830  -0.12573
C          C       0.88950   0.47517   0.76224  -0.12290
C          C       0.54179   0.37707   0.76432  -0.14043
C          C       0.62340   0.17163   0.73022  -0.13600
C          C       0.82679   0.44476   0.77060  -0.14008
C          C       0.59186   0.39275   0.68417   0.06612
C          C       0.59971   0.20425   0.67144   0.06897
C          C       0.79102   0.40032   0.67752   0.06777
C          C       0.60723   0.43759   0.59018  -0.13907
C          C       0.54735   0.17322   0.59229  -0.13780
C          C       0.81986   0.38759   0.57560  -0.14093
C          C       0.57362   0.46539   0.57576  -0.10564
C          C       0.52021   0.11214   0.57004  -0.09936
C          C       0.88226   0.41910   0.56485  -0.10413
C          C       0.62722   0.36226   0.69204   0.07705
C          C       0.63042   0.26987   0.68509   0.07361
C          C       0.72430   0.36637   0.68517   0.07842
C          C       0.69064   0.39518   0.68978  -0.18972
C          C       0.59771   0.29966   0.69226  -0.19050
C          C       0.69363   0.30384   0.68206  -0.18849
C          C       0.40137   0.70105   0.97261   0.08657
C          C       0.30349   0.69600   0.97094   0.08518
C          C       0.30774   0.60405   0.99015   0.08407
C          C       0.26735   0.72662   0.95160  -0.42624
C          C       0.46894   0.73762   0.95438  -0.42657
C          C       0.27572   0.53702   0.00685  -0.42578
N          N       0.50775   0.52041   0.04590  -0.30409
N          N       0.48280   0.98450   0.04299  -0.30602
N          N       0.01802   0.49778   0.05605  -0.30878
N          N       0.49878   0.51755   0.55186  -0.30640
N          N       0.47286   0.98481   0.52883  -0.30091
N          N       0.01217   0.49399   0.55004  -0.30650

