data_crystal

_audit_creation_method 'AiiDA-DDEC plugin'

_cell_length_a        23.64267
_cell_length_b        22.52587
_cell_length_c        10.94528

_cell_angle_alpha     75.28612
_cell_angle_beta     77.76841
_cell_angle_gamma     118.33361

_symmetry_space_group_name_Hall 'P 1'
_symmetry_space_group_name_H-M  'P 1'

loop_
_symmetry_equiv_pos_as_xyz
 'x,y,z'

loop_
_atom_site_label
_atom_site_type_symbol
_atom_site_fract_x
_atom_site_fract_y
_atom_site_fract_z
_atom_site_charge
H          H       0.78181   0.50903   0.26400   0.13677
H          H       0.72245   0.47747   0.92955   0.13009
H          H       0.70119   0.50046   0.28399   0.12854
H          H       0.78658   0.42630   0.01311   0.10930
H          H       0.91288   0.51438   0.46542   0.11472
H          H       0.96299   0.46509   0.11887   0.11113
H          H       0.83868   0.39016   0.16269   0.10758
H          H       0.05400   0.49437   0.15801   0.06710
H          H       0.11378   0.61603   0.34865   0.11673
H          H       0.23552   0.68377   0.33719   0.12491
H          H       0.29498   0.60584   0.04504   0.11504
H          H       0.17301   0.53714   0.05958   0.10957
H          H       0.50430   0.24678   0.31120   0.13152
H          H       0.48759   0.25215   0.96555   0.13152
H          H       0.48775   0.17714   0.45994   0.13190
H          H       0.54298   0.35722   0.07651   0.10476
H          H       0.45229   0.39773   0.55656   0.12150
H          H       0.56274   0.49952   0.11849   0.10906
H          H       0.62978   0.44305   0.14408   0.10516
H          H       0.54466   0.58283   0.16978   0.06440
H          H       0.34927   0.48155   0.36405   0.11760
H          H       0.28466   0.54253   0.33878   0.12476
H          H       0.47541   0.74475   0.03850   0.13091
H          H       0.53897   0.68352   0.06130   0.11035
H          H       0.72854   0.21774   0.32602   0.13694
H          H       0.71509   0.20562   0.98605   0.13673
H          H       0.78917   0.28736   0.36503   0.13063
H          H       0.61633   0.11419   0.01804   0.10863
H          H       0.56305   0.00247   0.48113   0.11818
H          H       0.51628   0.10403   0.16374   0.10631
H          H       0.57319   0.21875   0.19441   0.10628
H          H       0.44838   0.99482   0.19891   0.06722
H          H       0.47461   0.84426   0.35586   0.10816
H          H       0.42100   0.72457   0.33082   0.11426
H          H       0.33189   0.79816   0.07366   0.12649
H          H       0.38375   0.91601   0.10266   0.11135
H          H       0.78603   0.50502   0.77158   0.13657
H          H       0.72359   0.48435   0.42679   0.13090
H          H       0.70681   0.49752   0.77876   0.12964
H          H       0.78655   0.43647   0.51174   0.11001
H          H       0.91213   0.50782   0.96828   0.11441
H          H       0.96838   0.46725   0.61288   0.11101
H          H       0.84432   0.38951   0.65390   0.10787
H          H       0.05060   0.47892   0.68724   0.06924
H          H       0.11866   0.61971   0.83809   0.11718
H          H       0.24061   0.68752   0.82449   0.12332
H          H       0.29288   0.58916   0.56839   0.11813
H          H       0.17070   0.51972   0.58711   0.10906
H          H       0.50765   0.25025   0.80292   0.13026
H          H       0.48343   0.25282   0.46973   0.13066
H          H       0.48994   0.17684   0.94651   0.13084
H          H       0.52163   0.34353   0.58218   0.10521
H          H       0.47341   0.41196   0.05931   0.12024
H          H       0.55222   0.48291   0.62139   0.10713
H          H       0.61889   0.42544   0.63962   0.10475
H          H       0.54768   0.57782   0.65923   0.06595
H          H       0.35561   0.48031   0.87544   0.11937
H          H       0.28939   0.53950   0.85118   0.12514
H          H       0.47704   0.74059   0.53910   0.12689
H          H       0.54189   0.68016   0.55964   0.11094
H          H       0.72919   0.21282   0.81619   0.13691
H          H       0.71092   0.20890   0.49731   0.13705
H          H       0.79190   0.28370   0.85001   0.13026
H          H       0.61590   0.11668   0.51901   0.10769
H          H       0.56157   0.99794   0.98575   0.12261
H          H       0.51325   0.09620   0.66829   0.10621
H          H       0.57207   0.21306   0.69229   0.10598
H          H       0.44187   0.98591   0.71532   0.06866
H          H       0.46966   0.83702   0.87048   0.10695
H          H       0.41863   0.71820   0.84139   0.11277
H          H       0.33901   0.79589   0.56557   0.12352
H          H       0.38797   0.91261   0.59896   0.11184
C          C       0.72818   0.36146   0.36110  -0.07009
C          C       0.69118   0.39581   0.35635   0.08265
C          C       0.72635   0.47662   0.33088  -0.42305
C          C       0.80283   0.40604   0.34176   0.08041
C          C       0.82494   0.44253   0.42565  -0.13066
C          C       0.89561   0.48596   0.40080  -0.15648
C          C       0.94679   0.49265   0.29465   0.20015
C          C       0.92510   0.45806   0.20739  -0.17971
C          C       0.85459   0.41580   0.23166  -0.13198
C          C       0.06380   0.53011   0.21400   0.06559
C          C       0.13506   0.57177   0.20563   0.03812
C          C       0.15397   0.61444   0.28239  -0.09600
C          C       0.22176   0.65231   0.27548  -0.18302
C          C       0.27316   0.64892   0.19074   0.17490
C          C       0.25508   0.60728   0.11254  -0.18201
C          C       0.18678   0.56893   0.12098  -0.12196
C          C       0.62073   0.35401   0.37341  -0.07504
C          C       0.58840   0.28036   0.38575   0.07798
C          C       0.51197   0.23679   0.40823  -0.42145
C          C       0.58119   0.38963   0.36467   0.08350
C          C       0.53091   0.37772   0.48026  -0.13408
C          C       0.49200   0.40822   0.46673  -0.16164
C          C       0.50370   0.45382   0.33661   0.19542
C          C       0.55458   0.46661   0.22037  -0.18133
C          C       0.59194   0.43437   0.23494  -0.13257
C          C       0.48873   0.54673   0.23648   0.06963
C          C       0.44861   0.57876   0.21718   0.04126
C          C       0.37609   0.53893   0.29246  -0.08828
C          C       0.34037   0.57288   0.27896  -0.17977
C          C       0.37647   0.64820   0.19014   0.17662
C          C       0.44798   0.68721   0.10955  -0.18118
C          C       0.48338   0.65276   0.12312  -0.11773
C          C       0.62756   0.24844   0.37831  -0.06571
C          C       0.69622   0.28736   0.37495   0.09150
C          C       0.73375   0.24886   0.39014  -0.42238
C          C       0.59717   0.17702   0.36264   0.07322
C          C       0.59478   0.11493   0.44018  -0.13865
C          C       0.56434   0.04983   0.42025  -0.16278
C          C       0.53331   0.04280   0.32378   0.19398
C          C       0.53674   0.10533   0.24373  -0.18069
C          C       0.56897   0.17071   0.26146  -0.12179
C          C       0.46282   0.95787   0.24706   0.07158
C          C       0.43268   0.88811   0.23195   0.03380
C          C       0.44347   0.83343   0.29404  -0.09529
C          C       0.41360   0.76698   0.27997  -0.18548
C          C       0.37260   0.75339   0.20079   0.17430
C          C       0.36216   0.80784   0.13714  -0.17588
C          C       0.39145   0.87381   0.15366  -0.10906
C          C       0.73143   0.35718   0.85473  -0.06862
C          C       0.69506   0.39218   0.85168   0.08022
C          C       0.72966   0.47226   0.83099  -0.42311
C          C       0.80580   0.40078   0.83766   0.07957
C          C       0.82623   0.43507   0.92547  -0.13252
C          C       0.89649   0.48015   0.90182  -0.16164
C          C       0.94896   0.48993   0.79349   0.19905
C          C       0.92900   0.45692   0.70327  -0.18119
C          C       0.85875   0.41334   0.72597  -0.12961
C          C       0.06385   0.52226   0.72623   0.06471
C          C       0.13584   0.56478   0.71421   0.03422
C          C       0.15728   0.61364   0.77901  -0.10007
C          C       0.22534   0.65177   0.77063  -0.18222
C          C       0.27517   0.64322   0.69516   0.17877
C          C       0.25469   0.59546   0.62829  -0.19029
C          C       0.18589   0.55642   0.63944  -0.11954
C          C       0.62502   0.35168   0.86624  -0.07178
C          C       0.59161   0.27838   0.87751   0.07881
C          C       0.51515   0.23685   0.89967  -0.42052
C          C       0.58644   0.38816   0.85901   0.08467
C          C       0.54539   0.38515   0.97665  -0.13734
C          C       0.50655   0.41597   0.96764  -0.16343
C          C       0.50996   0.45344   0.83920   0.19794
C          C       0.55153   0.45709   0.72075  -0.18217
C          C       0.58854   0.42422   0.73134  -0.13401
C          C       0.49375   0.54467   0.73605   0.07001
C          C       0.45319   0.57659   0.72069   0.04123
C          C       0.38132   0.53692   0.80128  -0.09014
C          C       0.34476   0.56994   0.78837  -0.18049
C          C       0.37948   0.64415   0.69497   0.17613
C          C       0.45063   0.68348   0.61162  -0.17520
C          C       0.48672   0.64975   0.62419  -0.11857
C          C       0.62963   0.24526   0.87144  -0.06759
C          C       0.69860   0.28339   0.86682   0.08984
C          C       0.73612   0.24477   0.87893  -0.42344
C          C       0.59733   0.17297   0.85993   0.07328
C          C       0.59458   0.11123   0.94016  -0.13807
C          C       0.56324   0.04524   0.92355  -0.16692
C          C       0.53141   0.03713   0.82862   0.19301
C          C       0.53449   0.09899   0.74701  -0.18444
C          C       0.56780   0.16537   0.76095  -0.12149
C          C       0.45942   0.95085   0.75684   0.06983
C          C       0.43117   0.88199   0.73892   0.03792
C          C       0.44080   0.82696   0.80443  -0.09541
C          C       0.41248   0.76117   0.78790  -0.18657
C          C       0.37462   0.74892   0.70288   0.17394
C          C       0.36630   0.80424   0.63440  -0.17435
C          C       0.39356   0.86938   0.65390  -0.10696
N          N       0.01556   0.53406   0.28561  -0.30230
N          N       0.46179   0.48145   0.32891  -0.29273
N          N       0.50372   0.97465   0.31260  -0.30637
N          N       0.34204   0.68549   0.18622  -0.13557
N          N       0.01774   0.53298   0.78346  -0.30024
N          N       0.46903   0.48243   0.83560  -0.29005
N          N       0.50220   0.96892   0.81809  -0.30070
N          N       0.34428   0.68069   0.68890  -0.13768

