data_crystal

_audit_creation_method 'AiiDA-DDEC plugin'

_cell_length_a        31.72346
_cell_length_b        32.39109
_cell_length_c         7.89789

_cell_angle_alpha     100.58562
_cell_angle_beta     87.82971
_cell_angle_gamma     120.70932

_symmetry_space_group_name_Hall 'P 1'
_symmetry_space_group_name_H-M  'P 1'

loop_
_symmetry_equiv_pos_as_xyz
 'x,y,z'

loop_
_atom_site_label
_atom_site_type_symbol
_atom_site_fract_x
_atom_site_fract_y
_atom_site_fract_z
_atom_site_charge
H          H       0.10983   0.22893   0.90367   0.10073
H          H       0.23434   0.20968   0.86601   0.10314
H          H       0.25529   0.35311   0.91180   0.10086
H          H       0.32416   0.37113   0.05102   0.10797
H          H       0.29683   0.24367   0.67978   0.10490
H          H       0.41328   0.40691   0.02318   0.10168
H          H       0.38650   0.27883   0.65701   0.10197
H          H       0.08286   0.16925   0.04449   0.10331
H          H       0.17648   0.13633   0.71028   0.10709
H          H       0.02277   0.08099   0.01798   0.10259
H          H       0.11759   0.04842   0.69186   0.10174
H          H       0.21922   0.38698   0.83837   0.10467
H          H       0.09444   0.27784   0.05584   0.10374
H          H       0.18583   0.44199   0.90005   0.10817
H          H       0.05923   0.33077   0.10084   0.10357
H          H       0.47967   0.40587   0.91920   0.08183
H          H       0.47494   0.25963   0.36425   0.27412
H          H       0.54195   0.23755   0.40138   0.28060
H          H       0.80187   0.41301   0.68734   0.10319
H          H       0.67993   0.43101   0.84132   0.10903
H          H       0.85870   0.49197   0.87653   0.10417
H          H       0.73665   0.50956   0.03285   0.10637
H          H       0.78967   0.58577   0.03380   0.10686
H          H       0.88742   0.53743   0.13781   0.09891
H          H       0.92638   0.68683   0.32618   0.10184
H          H       0.91047   0.72823   0.09636   0.10311
H          H       0.77636   0.64010   0.32594   0.10884
H          H       0.95603   0.55834   0.16893   0.10436
H          H       0.97743   0.69147   0.48858   0.10448
H          H       0.89027   0.79385   0.11927   0.11045
H          H       0.75747   0.70659   0.35727   0.10494
H          H       0.03625   0.57676   0.28056   0.11002
H          H       0.05839   0.71036   0.59558   0.10453
H          H       0.23484   0.62770   0.55673   0.27667
H          H       0.24599   0.56943   0.31651   0.27393
H          H       0.91050   0.01237   0.20504   0.27255
H          H       0.81958   0.93744   0.10151   0.27644
H          H       0.04880   0.98369   0.76876   0.08060
H          H       0.12524   0.69127   0.59354   0.09154
H          H       0.78050   0.79055   0.33067   0.09056
H          H       0.05926   0.40330   0.99422   0.08685
H          H       0.71687   0.34828   0.56264   0.08992
H          H       0.10552   0.22509   0.40934   0.09948
H          H       0.22887   0.20410   0.35212   0.10355
H          H       0.25104   0.34830   0.41098   0.10057
H          H       0.31920   0.36560   0.54549   0.10838
H          H       0.29238   0.23863   0.17147   0.10427
H          H       0.40833   0.40096   0.52112   0.10104
H          H       0.38212   0.27394   0.15010   0.10267
H          H       0.07911   0.16820   0.54676   0.10330
H          H       0.16945   0.12934   0.21592   0.10770
H          H       0.01710   0.08073   0.52929   0.10277
H          H       0.10902   0.04235   0.20802   0.10223
H          H       0.21543   0.38161   0.33918   0.10468
H          H       0.08932   0.27463   0.55987   0.10388
H          H       0.18304   0.43738   0.39246   0.10821
H          H       0.05473   0.32806   0.59279   0.10359
H          H       0.47414   0.40247   0.41084   0.08315
H          H       0.47556   0.25817   0.86246   0.27537
H          H       0.54574   0.24097   0.90311   0.27942
H          H       0.80208   0.41703   0.18996   0.10325
H          H       0.68187   0.43661   0.35610   0.10878
H          H       0.85995   0.49439   0.38482   0.10327
H          H       0.73990   0.51470   0.54843   0.10580
H          H       0.79464   0.59082   0.54416   0.10478
H          H       0.89074   0.54026   0.64448   0.09913
H          H       0.93299   0.69067   0.82886   0.10441
H          H       0.91557   0.73531   0.60941   0.10424
H          H       0.77944   0.63965   0.81260   0.10756
H          H       0.96246   0.56406   0.64992   0.10298
H          H       0.97918   0.68918   0.01140   0.10192
H          H       0.89102   0.79772   0.62990   0.11261
H          H       0.75593   0.70275   0.84061   0.10504
H          H       0.04180   0.58033   0.76164   0.11008
H          H       0.05999   0.70702   0.11630   0.10295
H          H       0.23376   0.61949   0.05056   0.27497
H          H       0.24281   0.56147   0.80052   0.27365
H          H       0.89958   0.01220   0.70962   0.27737
H          H       0.81032   0.93453   0.61990   0.27903
H          H       0.03905   0.97972   0.28997   0.08284
H          H       0.12770   0.68841   0.10275   0.09223
H          H       0.77663   0.78658   0.83031   0.09137
H          H       0.05576   0.39945   0.47253   0.08638
H          H       0.71819   0.35508   0.06360   0.08626
C          C       0.14936   0.24460   0.90296  -0.18093
C          C       0.16787   0.21295   0.88487   0.07710
C          C       0.21874   0.23304   0.87391  -0.18236
C          C       0.25040   0.28343   0.88148   0.07625
C          C       0.23064   0.31403   0.90395  -0.17995
C          C       0.18009   0.29535   0.91582   0.07806
C          C       0.30378   0.30452   0.86782   0.06865
C          C       0.33757   0.35117   0.96205  -0.13905
C          C       0.32243   0.27896   0.75879  -0.13118
C          C       0.38773   0.37101   0.94749  -0.12725
C          C       0.37266   0.29855   0.74413  -0.10129
C          C       0.40656   0.34516   0.83981   0.06262
C          C       0.13390   0.15995   0.87669   0.06634
C          C       0.08996   0.14292   0.96209  -0.13277
C          C       0.14339   0.12470   0.78094  -0.13672
C          C       0.05624   0.09331   0.95020  -0.10258
C          C       0.10993   0.07500   0.76954  -0.12659
C          C       0.06537   0.05800   0.85205   0.06397
C          C       0.15967   0.32799   0.94303   0.06181
C          C       0.18488   0.37495   0.90137  -0.13162
C          C       0.11414   0.31305   0.01587  -0.13177
C          C       0.16622   0.40612   0.93514  -0.10548
C          C       0.09440   0.34321   0.04325  -0.13341
C          C       0.12050   0.39057   0.00648   0.06873
C          C       0.45988   0.36939   0.83789   0.02222
C          C       0.50605   0.30670   0.58736   0.24646
C          C       0.58288   0.30953   0.50603   0.24585
C          C       0.70321   0.37115   0.63266   0.02154
C          C       0.73680   0.41673   0.74846   0.06135
C          C       0.78746   0.43412   0.76356  -0.13539
C          C       0.71919   0.44489   0.84816  -0.10834
C          C       0.81950   0.47872   0.87002  -0.13538
C          C       0.75111   0.48903   0.95359  -0.12705
C          C       0.80209   0.50749   0.96551   0.07116
C          C       0.83532   0.55601   0.07152   0.07937
C          C       0.82348   0.59293   0.09511  -0.18469
C          C       0.87970   0.56676   0.14826  -0.17915
C          C       0.85621   0.63997   0.18712   0.07622
C          C       0.91324   0.61341   0.24203   0.07552
C          C       0.90106   0.64997   0.25729  -0.18529
C          C       0.84432   0.67917   0.20598   0.06971
C          C       0.96020   0.62369   0.31805   0.06975
C          C       0.87677   0.72345   0.15233  -0.13561
C          C       0.80096   0.67344   0.27822  -0.13679
C          C       0.97771   0.59140   0.26467  -0.12697
C          C       0.99022   0.66644   0.43944  -0.13589
C          C       0.86567   0.76010   0.16446  -0.10143
C          C       0.79039   0.71081   0.29581  -0.12635
C          C       0.02302   0.60166   0.32566  -0.11491
C          C       0.03601   0.67714   0.50075  -0.12774
C          C       0.82201   0.75425   0.23596   0.05783
C          C       0.05354   0.64525   0.44327   0.05721
C          C       0.10214   0.65724   0.50155   0.02458
C          C       0.17411   0.60864   0.41499   0.23504
C          C       0.17213   0.53253   0.27982   0.24996
C          C       0.09794   0.42092   0.03838   0.03082
C          C       0.03339   0.00517   0.83598   0.02203
C          C       0.92493   0.96931   0.02614   0.24993
C          C       0.85492   0.90278   0.14345   0.24928
C          C       0.80989   0.79240   0.24899   0.02663
C          C       0.14491   0.24038   0.40542  -0.18060
C          C       0.16306   0.20839   0.38343   0.07435
C          C       0.21364   0.22788   0.36612  -0.18007
C          C       0.24551   0.27830   0.37467   0.07600
C          C       0.22613   0.30926   0.40268  -0.17700
C          C       0.17572   0.29099   0.41816   0.07673
C          C       0.29889   0.29929   0.35976   0.06898
C          C       0.33256   0.34571   0.45596  -0.13792
C          C       0.31783   0.27392   0.25090  -0.13239
C          C       0.38273   0.36550   0.44292  -0.12604
C          C       0.36817   0.29362   0.23712  -0.10258
C          C       0.40183   0.34022   0.33367   0.06602
C          C       0.12861   0.15581   0.38030   0.06722
C          C       0.08509   0.14064   0.46776  -0.13297
C          C       0.13680   0.11927   0.28833  -0.13551
C          C       0.05029   0.09158   0.46050  -0.10589
C          C       0.10239   0.07006   0.28248  -0.12684
C          C       0.05813   0.05498   0.36579   0.06700
C          C       0.15545   0.32376   0.44623   0.06127
C          C       0.18112   0.37034   0.40180  -0.13173
C          C       0.10976   0.30949   0.51752  -0.13207
C          C       0.16285   0.40183   0.42995  -0.10386
C          C       0.09027   0.33993   0.53847  -0.13617
C          C       0.11672   0.38676   0.49751   0.06922
C          C       0.45519   0.36573   0.33124   0.02022
C          C       0.50475   0.30590   0.08578   0.24958
C          C       0.58381   0.31269   0.01178   0.24463
C          C       0.70414   0.37670   0.14049   0.02713
C          C       0.73791   0.42165   0.25817   0.06182
C          C       0.78840   0.43822   0.27042  -0.13466
C          C       0.72104   0.45000   0.36119  -0.10693
C          C       0.82099   0.48205   0.37901  -0.13404
C          C       0.75365   0.49377   0.46737  -0.12654
C          C       0.80447   0.51122   0.47729   0.07258
C          C       0.83884   0.55957   0.58164   0.07751
C          C       0.82818   0.59722   0.60479  -0.18240
C          C       0.88336   0.56984   0.65547  -0.17763
C          C       0.86184   0.64443   0.69297   0.07287
C          C       0.91766   0.61645   0.74718   0.07698
C          C       0.90667   0.65389   0.76176  -0.18687
C          C       0.84896   0.68284   0.70849   0.07076
C          C       0.96448   0.62570   0.82054   0.06730
C          C       0.88054   0.72812   0.65989  -0.13425
C          C       0.80364   0.67411   0.77105  -0.13628
C          C       0.98287   0.59477   0.75529  -0.12663
C          C       0.99325   0.66597   0.95221  -0.13607
C          C       0.86701   0.76308   0.67061  -0.10193
C          C       0.79048   0.70952   0.78652  -0.12469
C          C       0.02778   0.60399   0.81610  -0.11741
C          C       0.03875   0.67579   0.01294  -0.12716
C          C       0.82164   0.75433   0.73456   0.05786
C          C       0.05703   0.64514   0.94499   0.05585
C          C       0.10503   0.65572   0.00483   0.02772
C          C       0.17436   0.60432   0.91000   0.23407
C          C       0.16929   0.52760   0.76408   0.24811
C          C       0.09413   0.41710   0.52032   0.02954
C          C       0.02477   0.00260   0.35366   0.01640
C          C       0.91636   0.96907   0.53940   0.25559
C          C       0.84772   0.90135   0.65480   0.24418
C          C       0.80687   0.79058   0.74939   0.02634
S          S       0.56873   0.35100   0.63415   0.02046
S          S       0.13019   0.55310   0.28508   0.02655
S          S       0.90771   0.90901   0.04063   0.04411
S          S       0.56667   0.35179   0.13999   0.01979
S          S       0.12914   0.55046   0.77608   0.02767
S          S       0.90123   0.90946   0.55376   0.05024
N          N       0.48983   0.35683   0.76180  -0.16392
N          N       0.47004   0.31068   0.65651  -0.28647
N          N       0.49711   0.26502   0.46747  -0.25967
N          N       0.54223   0.26948   0.40916  -0.24123
N          N       0.62644   0.31506   0.50486  -0.30314
N          N       0.65767   0.35894   0.61408  -0.12286
N          N       0.11767   0.62784   0.43951  -0.12838
N          N       0.16537   0.64237   0.49101  -0.29628
N          N       0.21996   0.61286   0.43244  -0.25817
N          N       0.21592   0.56605   0.37882  -0.24790
N          N       0.16392   0.49069   0.19254  -0.29730
N          N       0.11596   0.46582   0.11718  -0.14915
N          N       0.98991   0.97763   0.88721  -0.16698
N          N       0.96397  -0.00018   0.95857  -0.27836
N          N       0.89270   0.98387   0.10276  -0.26585
N          N       0.85124   0.94471   0.16188  -0.25655
N          N       0.82200   0.86433   0.19997  -0.30697
N          N       0.83434   0.82823   0.16732  -0.14733
N          N       0.48600   0.35448   0.25514  -0.16179
N          N       0.46752   0.30845   0.15027  -0.28984
N          N       0.49825   0.26519   0.96650  -0.25653
N          N       0.54445   0.27210   0.91043  -0.23997
N          N       0.62801   0.31988   0.01272  -0.29938
N          N       0.65816   0.36333   0.12626  -0.12839
N          N       0.12022   0.62640   0.93755  -0.12836
N          N       0.16721   0.63885   0.98971  -0.29785
N          N       0.21917   0.60627   0.92571  -0.25723
N          N       0.21325   0.55897   0.86450  -0.24562
N          N       0.16009   0.48602   0.67239  -0.29516
N          N       0.11252   0.46239   0.59515  -0.15021
N          N       0.98084   0.97657   0.40368  -0.16134
N          N       0.95533  -0.00030   0.47111  -0.28551
N          N       0.88290   0.98200   0.61288  -0.26131
N          N       0.84276   0.94266   0.67695  -0.25501
N          N       0.81539   0.86186   0.70745  -0.31211
N          N       0.83015   0.82752   0.67233  -0.14546

