data_crystal

_audit_creation_method 'AiiDA-DDEC plugin'

_cell_length_a        45.12405
_cell_length_b        45.11011
_cell_length_c         8.19067

_cell_angle_alpha     83.30225
_cell_angle_beta     121.41311
_cell_angle_gamma     120.45274

_symmetry_space_group_name_Hall 'P 1'
_symmetry_space_group_name_H-M  'P 1'

loop_
_symmetry_equiv_pos_as_xyz
 'x,y,z'

loop_
_atom_site_label
_atom_site_type_symbol
_atom_site_fract_x
_atom_site_fract_y
_atom_site_fract_z
_atom_site_charge
H          H       0.26125   0.59008  -0.00116   0.12046
H          H       0.41200   0.66937   0.00706   0.11902
H          H       0.33258   0.73978   0.00152   0.11814
H          H       0.74092   0.41187   0.99363   0.12019
H          H       0.59186   0.33103   0.00994   0.12034
H          H       0.66867   0.26127   0.98488   0.11864
H          H       0.24955   0.65094   0.01533   0.10367
H          H       0.34838   0.59465   0.98605   0.11010
H          H       0.40503   0.75494   0.98181   0.10757
H          H       0.75588   0.35184   0.01649   0.10399
H          H       0.64966   0.40532  -0.00289   0.10576
H          H       0.59728   0.24765   0.01013   0.10602
H          H       0.44967   0.65154   0.01442   0.11151
H          H       0.34809   0.79455   0.99494   0.11121
H          H       0.20426   0.55157   0.98492   0.11083
H          H       0.54802   0.34548   0.96374   0.11061
H          H       0.65101   0.20647   0.97716   0.11067
H          H       0.79657   0.44951   0.99348   0.10959
H          H       0.48968   0.62756   0.03302   0.10527
H          H       0.37066   0.85691   0.99226   0.10321
H          H       0.14064   0.51278   0.98097   0.09751
H          H       0.50839   0.36823   0.96267   0.10151
H          H       0.62461   0.14296   0.95618   0.10434
H          H       0.85877   0.48719   0.98613   0.09950
H          H       0.39830   0.52430  -0.00033   0.11547
H          H       0.47223   0.87512   0.97843   0.11626
H          H       0.13223   0.60114   0.03730   0.11143
H          H       0.60122   0.47356   0.03350   0.11597
H          H       0.52558   0.12698   0.98886   0.11303
H          H       0.87604   0.40093   0.02161   0.11354
H          H       0.35765   0.54826   0.98164   0.11166
H          H       0.44943   0.81196   0.97795   0.11281
H          H       0.19642   0.64088   0.04232   0.11106
H          H       0.64156   0.45101   0.03253   0.11092
H          H       0.55128   0.19106   0.00443   0.11287
H          H       0.81271   0.36227   0.02657   0.11053
H          H       0.49960   0.57979   0.04538   0.06094
H          H       0.41625   0.91470   0.98455   0.06414
H          H       0.08457   0.50273   0.98072   0.05478
H          H       0.49731   0.41481   0.96100   0.05873
H          H       0.57280   0.08432   0.92327   0.07021
H          H       0.91464   0.49551   0.97798   0.05282
H          H       0.52420   0.55971   0.98019   0.10799
H          H       0.43937   0.96806   0.02506   0.10839
H          H       0.03816   0.47049   0.02695   0.10662
H          H       0.47070   0.43407   0.02968   0.10522
H          H       0.56101   0.03523   0.97260   0.11015
H          H       0.96673   0.52812  -0.00343   0.10478
H          H       0.55953   0.53095   0.99185   0.11598
H          H       0.46926   0.03172   0.02490   0.12027
H          H       0.97270   0.43550   0.01210   0.11532
H          H       0.43582   0.46315   0.02159   0.11478
H          H       0.53062   0.97132   0.96804   0.12075
H          H       0.03152   0.56273   0.00699   0.11614
H          H       0.26147   0.59019   0.52471   0.12052
H          H       0.40690   0.66644   0.48213   0.11946
H          H       0.33382   0.73978   0.51530   0.11657
H          H       0.74044   0.41016   0.50937   0.11789
H          H       0.59072   0.33245   0.51228   0.11982
H          H       0.66375   0.25925   0.48036   0.11748
H          H       0.24576   0.65002   0.49034   0.10349
H          H       0.35299   0.59482   0.54078   0.10537
H          H       0.40147   0.75155   0.46436   0.10780
H          H       0.75207   0.34904   0.49935   0.10770
H          H       0.65173   0.40629   0.50629   0.10521
H          H       0.59563   0.24685   0.52992   0.10951
H          H       0.44242   0.64971   0.47083   0.11047
H          H       0.34671   0.79283   0.47867   0.11012
H          H       0.20489   0.55259   0.50881   0.10784
H          H       0.55021   0.34936   0.47637   0.11119
H          H       0.64998   0.20689   0.49800   0.11193
H          H       0.79344   0.44716   0.49387   0.11130
H          H       0.48019   0.62627   0.45734   0.10174
H          H       0.37120   0.85584   0.48295   0.10229
H          H       0.14181   0.51411   0.50661   0.09963
H          H       0.51223   0.37439   0.47408   0.10315
H          H       0.62495   0.14365   0.47370   0.10446
H          H       0.85696   0.48617   0.49871   0.09892
H          H       0.40605   0.52714   0.55052   0.11946
H          H       0.47402   0.87267   0.48467   0.11755
H          H       0.12622   0.60080   0.49423   0.11458
H          H       0.60615   0.47793   0.53073   0.11918
H          H       0.52258   0.12424   0.48669   0.11482
H          H       0.87336   0.39996   0.51093   0.11235
H          H       0.36705   0.55029   0.56049   0.10938
H          H       0.44930   0.80898   0.47886   0.11336
H          H       0.19013   0.64006   0.49625   0.11067
H          H       0.64490   0.45297   0.53243   0.11054
H          H       0.54718   0.18803   0.50776   0.11169
H          H       0.80910   0.36017   0.50479   0.11048
H          H       0.49020   0.57973   0.45201   0.05963
H          H       0.41691   0.91237   0.47929   0.06073
H          H       0.08209   0.50387   0.48625   0.05599
H          H       0.50339   0.42088   0.47353   0.05528
H          H       0.57530   0.08473   0.44650   0.06788
H          H       0.91607   0.49702   0.51700   0.05615
H          H       0.53415   0.56697   0.54136   0.10871
H          H       0.43771   0.96474   0.51079   0.10976
H          H       0.04544   0.47801   0.60328   0.10358
H          H       0.47201   0.43789   0.48688   0.10509
H          H       0.56177   0.03476   0.47862   0.10909
H          H       0.95433   0.52382   0.40609   0.10436
H          H       0.56970   0.53911   0.54233   0.11678
H          H       0.46614   0.02818   0.50868   0.12012
H          H       0.98057   0.44243   0.59363   0.11301
H          H       0.43648   0.46571   0.48430   0.11722
H          H       0.53262   0.97095   0.47585   0.12158
H          H       0.01919   0.55946   0.41656   0.11340
C          C       0.34421   0.69934  -0.00252   0.41167
C          C       0.30191   0.64282  -0.00232   0.40923
C          C       0.35864   0.65745   0.00107   0.40712
C          C       0.65855   0.30252   0.00050   0.41523
C          C       0.70074   0.35936   0.00426   0.40962
C          C       0.64388   0.34400   0.00163   0.41091
C          C       0.26621   0.61630   0.00170  -0.19471
C          C       0.38504   0.64775   0.00190  -0.19089
C          C       0.35361   0.73541   0.99583  -0.18835
C          C       0.73660   0.38590   0.00159  -0.18945
C          C       0.61709   0.35274   0.00391  -0.19616
C          C       0.64844   0.26624   0.99492  -0.18932
C          C       0.24138   0.62365   0.01011  -0.07493
C          C       0.37639   0.61426   0.99322  -0.08259
C          C       0.38569   0.76181   0.98822  -0.09203
C          C       0.76305   0.37874   0.00915  -0.08103
C          C       0.62303   0.38533  -0.00025  -0.07888
C          C       0.61592   0.24028  -0.00033  -0.08893
C          C       0.40056   0.60165  -0.00328   0.10091
C          C       0.39706   0.79827   0.98684   0.09942
C          C       0.20504   0.59929   0.01239   0.10405
C          C       0.59817   0.39667   0.00037   0.10667
C          C       0.60294   0.20349   0.99209   0.09622
C          C       0.79958   0.40274   0.00759   0.10883
C          C       0.43820   0.62370   0.01153  -0.12219
C          C       0.37505   0.81172   0.98971  -0.12538
C          C       0.18906   0.56283  -0.00196  -0.12292
C          C       0.56018   0.37358   0.98066  -0.12700
C          C       0.62362   0.18939   0.98026  -0.12278
C          C       0.81337   0.43844  -0.00279  -0.12398
C          C       0.46079   0.61027   0.02268  -0.13601
C          C       0.38781   0.84692   0.98879  -0.13255
C          C       0.15326   0.54097   0.99463  -0.13909
C          C       0.53773   0.38628   0.97901  -0.13417
C          C       0.60882   0.15370   0.96850  -0.12901
C          C       0.84850   0.45971   0.99418  -0.13991
C          C       0.44651   0.57418   0.01777   0.05506
C          C       0.42317   0.87032   0.98602   0.05716
C          C       0.13224   0.55448   0.00727   0.06618
C          C       0.55233   0.42252  -0.00138   0.05895
C          C       0.57334   0.13090   0.97154   0.05700
C          C       0.87124   0.44623   0.00097   0.06593
C          C       0.40890   0.55201   0.00211  -0.10947
C          C       0.44531   0.85714   0.98302  -0.10392
C          C       0.14832   0.59088   0.02439  -0.09602
C          C       0.59034   0.44571   0.01978  -0.10551
C          C       0.55277   0.14483   0.98512  -0.10282
C          C       0.85800   0.41085   0.01457  -0.09254
C          C       0.38652   0.56549   0.99167  -0.12434
C          C       0.43238   0.82195   0.98262  -0.12830
C          C       0.18397   0.61269   0.02731  -0.12231
C          C       0.61249   0.43296   0.01913  -0.12677
C          C       0.56728   0.18038   0.99409  -0.12812
C          C       0.82288   0.38965   0.01676  -0.12526
C          C       0.46990   0.56029   0.02403   0.06521
C          C       0.43609   0.90715   0.98609   0.06702
C          C       0.09478   0.53068   0.00213   0.06638
C          C       0.52787   0.43517   0.99265   0.06393
C          C       0.55865   0.09368   0.96253   0.06803
C          C       0.90738   0.46851   0.99308   0.07205
C          C       0.47785   0.51346   0.00510   0.20095
C          C       0.48236   0.96481   0.98991   0.19339
C          C       0.03900   0.51926   0.01316   0.20217
C          C       0.51817   0.48090   0.01272   0.20461
C          C       0.51651   0.03789   0.99503   0.19509
C          C       0.96476   0.47890   0.00264   0.20642
C          C       0.51280   0.53247   0.99464  -0.15876
C          C       0.46511   0.98221   0.00691  -0.16538
C          C       0.02244   0.48316   0.01823  -0.17455
C          C       0.48260   0.46157   0.01863  -0.16751
C          C       0.53426   0.02064   0.98231  -0.16692
C          C       0.98160   0.51506  -0.00130  -0.16757
C          C       0.53259   0.51656   0.00011  -0.13815
C          C       0.48189   0.01792   0.00890  -0.14168
C          C       0.98594   0.46345   0.01116  -0.13519
C          C       0.46293   0.47761   0.01451  -0.13875
C          C       0.51746   0.98495   0.97973  -0.13689
C          C       0.01788   0.53469   0.00520  -0.13453
C          C       0.34284   0.69802   0.49724   0.41298
C          C       0.30104   0.64193   0.50544   0.40876
C          C       0.35703   0.65584   0.50364   0.40885
C          C       0.65553   0.30112   0.50487   0.41449
C          C       0.69900   0.35754   0.50911   0.40856
C          C       0.64273   0.34378   0.50837   0.40700
C          C       0.26546   0.61599   0.51166  -0.18928
C          C       0.38286   0.64589   0.50116  -0.19427
C          C       0.35292   0.73435   0.49719  -0.18716
C          C       0.73508   0.38379   0.50718  -0.19004
C          C       0.61668   0.35373   0.50870  -0.19359
C          C       0.64463   0.26462   0.49849  -0.18868
C          C       0.23895   0.62329   0.50229  -0.08083
C          C       0.37759   0.61361   0.52003  -0.07758
C          C       0.38388   0.75953   0.48008  -0.09234
C          C       0.76010   0.37627   0.50188  -0.08176
C          C       0.62443   0.38690   0.50671  -0.07949
C          C       0.61312   0.23913   0.51154  -0.09440
C          C       0.40153   0.60159   0.51497   0.10172
C          C       0.39642   0.79622   0.48000   0.09886
C          C       0.20259   0.59944   0.50533   0.10844
C          C       0.60062   0.39956   0.50620   0.10831
C          C       0.60023   0.20225   0.50266   0.10135
C          C       0.79659   0.40061   0.50016   0.10640
C          C       0.43419   0.62289   0.48846  -0.12776
C          C       0.37451   0.81005   0.47961  -0.12377
C          C       0.18823   0.56350   0.50839  -0.12377
C          C       0.56278   0.37748   0.48913  -0.12847
C          C       0.62202   0.18903   0.49464  -0.12562
C          C       0.81059   0.43652   0.49683  -0.12282
C          C       0.45553   0.60979   0.48136  -0.13200
C          C       0.38820   0.84540   0.48147  -0.12884
C          C       0.15253   0.54180   0.50572  -0.13454
C          C       0.54141   0.39141   0.48725  -0.13515
C          C       0.60801   0.15349   0.48181  -0.12764
C          C       0.84638   0.45848   0.50028  -0.14049
C          C       0.44530   0.57499   0.50162   0.05420
C          C       0.42431   0.86846   0.48420   0.05664
C          C       0.12982   0.55500   0.50209   0.06734
C          C       0.55694   0.42777   0.50280   0.05775
C          C       0.57192   0.12975   0.47835   0.05601
C          C       0.86956   0.44563   0.50569   0.06493
C          C       0.41323   0.55373   0.53170  -0.11511
C          C       0.44644   0.85490   0.48492  -0.10397
C          C       0.14401   0.59082   0.49860  -0.09743
C          C       0.59475   0.45000   0.52055  -0.10732
C          C       0.55013   0.14276   0.48755  -0.10350
C          C       0.85550   0.40978   0.50746  -0.09486
C          C       0.39175   0.56682   0.53704  -0.12483
C          C       0.43251   0.81949   0.48153  -0.12871
C          C       0.17955   0.61244   0.50018  -0.12370
C          C       0.61591   0.43601   0.52134  -0.12845
C          C       0.56408   0.17824   0.49931  -0.12896
C          C       0.81981   0.38789   0.50393  -0.12527
C          C       0.46751   0.56174   0.48802   0.06589
C          C       0.43729   0.90525   0.48417   0.06994
C          C       0.09241   0.53191   0.49925   0.07201
C          C       0.53339   0.44115   0.49820   0.06757
C          C       0.55837   0.09274   0.47084   0.06760
C          C       0.90689   0.46923   0.50840   0.06767
C          C       0.48206   0.51787   0.50789   0.20400
C          C       0.48297   0.96306   0.48907   0.19434
C          C       0.03667   0.52138   0.50697   0.20774
C          C       0.52369   0.48682   0.51420   0.20126
C          C       0.51547   0.03594   0.49149   0.19438
C          C       0.96315   0.48046   0.50204   0.20364
C          C       0.52009   0.53866   0.52544  -0.16947
C          C       0.46419   0.97956   0.49854  -0.16590
C          C       0.02535   0.48795   0.55706  -0.17010
C          C       0.48563   0.46608   0.49665  -0.16160
C          C       0.53461   0.01958   0.48563  -0.16376
C          C       0.97430   0.51380   0.45091  -0.16653
C          C       0.54031   0.52334   0.52805  -0.13747
C          C       0.48015   0.01518   0.49925  -0.14071
C          C       0.98929   0.46801   0.55267  -0.13327
C          C       0.46550   0.48136   0.49459  -0.13888
C          C       0.51853   0.98395   0.48408  -0.13909
C          C       0.01043   0.53379   0.45592  -0.14047
N          N       0.30973   0.67608   0.99373  -0.42445
N          N       0.32494   0.63211  -0.00135  -0.43007
N          N       0.37013   0.69151   0.00389  -0.43127
N          N       0.69306   0.32611   0.00708  -0.42697
N          N       0.67734   0.36971   0.00287  -0.42911
N          N       0.63275   0.31003  -0.00277  -0.43086
N          N       0.45595   0.52694   0.00430  -0.28964
N          N       0.46880   0.92916   0.98683  -0.29810
N          N       0.07504   0.54205   0.01771  -0.29069
N          N       0.54136   0.46837   0.01928  -0.28660
N          N       0.53073   0.07366  -0.00021  -0.30356
N          N       0.92930   0.45696   0.00426  -0.29967
N          N       0.30871   0.67515   0.49645  -0.42874
N          N       0.32419   0.63101   0.50970  -0.42762
N          N       0.36808   0.68976   0.50007  -0.42859
N          N       0.68998   0.32392   0.50817  -0.42731
N          N       0.67660   0.36884   0.51059  -0.42945
N          N       0.63065   0.30957   0.50442  -0.43141
N          N       0.45981   0.53032   0.51269  -0.28814
N          N       0.47029   0.92761   0.48779  -0.30062
N          N       0.07205   0.54366   0.50589  -0.29188
N          N       0.54696   0.47442   0.52059  -0.29231
N          N       0.52854   0.07146   0.49349  -0.30435
N          N       0.92802   0.45811   0.50501  -0.28894

