data_crystal

_audit_creation_method 'AiiDA-DDEC plugin'

_cell_length_a        38.73567
_cell_length_b        39.35663
_cell_length_c         8.33331

_cell_angle_alpha     94.13116
_cell_angle_beta     110.26488
_cell_angle_gamma     89.85070

_symmetry_space_group_name_Hall 'P 1'
_symmetry_space_group_name_H-M  'P 1'

loop_
_symmetry_equiv_pos_as_xyz
 'x,y,z'

loop_
_atom_site_label
_atom_site_type_symbol
_atom_site_fract_x
_atom_site_fract_y
_atom_site_fract_z
_atom_site_charge
H          H       0.87132   0.47006   0.25003   0.11547
H          H       0.12402   0.53822   0.25287   0.11100
H          H       0.53701   0.87322   0.30333   0.11554
H          H       0.47020   0.12250   0.29901   0.11498
H          H       0.12439   0.47274   0.18478   0.11567
H          H       0.86957   0.53197   0.17082   0.11375
H          H       0.46444   0.87368   0.23987   0.11207
H          H       0.53172   0.12245   0.22840   0.11501
H          H       0.95404   0.39456   0.42579   0.10168
H          H       0.06442   0.60790   0.47990   0.10608
H          H       0.62380   0.94985   0.46525   0.10443
H          H       0.39929   0.04845   0.39554   0.10488
H          H       0.05077   0.38717   0.12280   0.10272
H          H       0.93974   0.60385   0.05380   0.10721
H          H       0.37759   0.94233   0.00136   0.10458
H          H       0.59822   0.04706   0.08017   0.10343
H          H       0.00085   0.43252   0.39476   0.11059
H          H       0.01636   0.56469   0.43550   0.11487
H          H       0.57897   0.99559   0.39832   0.11734
H          H       0.43857   0.00186   0.35427   0.11068
H          H       0.00447   0.42458   0.17416   0.11335
H          H       0.98883   0.56235   0.10520   0.11249
H          H       0.42204   0.98910   0.05382   0.11990
H          H       0.55846   0.00085   0.10765   0.10825
H          H       0.83510   0.42638   0.15857   0.10462
H          H       0.16287   0.57157   0.30586   0.10383
H          H       0.58600   0.84235   0.48327   0.10674
H          H       0.42542   0.15080   0.21344   0.09593
H          H       0.16416   0.43151   0.32351   0.10509
H          H       0.84687   0.57009   0.25304   0.10015
H          H       0.42749   0.83754   0.19843   0.10285
H          H       0.57791   0.15340   0.30923   0.09921
H          H       0.78942   0.38312   0.16503   0.12265
H          H       0.20595   0.61720   0.30545   0.12218
H          H       0.63048   0.79805   0.46233   0.12712
H          H       0.38115   0.19564   0.21431   0.11732
H          H       0.21126   0.38866   0.32142   0.12379
H          H       0.80392   0.61484   0.27173   0.11317
H          H       0.38195   0.79652   0.22308   0.11989
H          H       0.62326   0.19723   0.30795   0.11918
H          H       0.87363   0.33327   0.55034   0.10748
H          H       0.13827   0.69147   0.44789   0.10463
H          H       0.68790   0.87108   0.28014   0.10471
H          H       0.33281   0.13380   0.48999   0.10344
H          H       0.12842   0.32496   0.94378   0.10595
H          H       0.85166   0.68052   0.01117   0.10571
H          H       0.29722   0.87008   0.05724   0.10128
H          H       0.66387   0.12846   0.99327   0.10351
H          H       0.91875   0.37806   0.55628   0.09872
H          H       0.09469   0.64643   0.44532   0.10160
H          H       0.64393   0.91444   0.29828   0.10028
H          H       0.37795   0.08998   0.49792   0.09917
H          H       0.08161   0.36869   0.93672   0.09841
H          H       0.89275   0.63519   0.97898   0.09495
H          H       0.34199   0.91120   0.03824   0.09744
H          H       0.61798   0.08564   0.98622   0.09803
H          H       0.83490   0.71791   0.18276   0.06241
H          H       0.16654   0.29287   0.20944   0.06151
H          H       0.26815   0.83569   0.14085   0.05173
H          H       0.70888   0.16520   0.07633   0.06550
H          H       0.16190   0.72032   0.29482   0.05588
H          H       0.83790   0.29020   0.31079   0.06287
H          H       0.72818   0.83605   0.35499   0.05538
H          H       0.29174   0.17234   0.42920   0.06596
H          H       0.81889   0.77541   0.21367   0.10239
H          H       0.18508   0.23950   0.30790   0.10129
H          H       0.21224   0.81813   0.16421   0.09882
H          H       0.77056   0.18620   0.11947   0.10382
H          H       0.17324   0.77545   0.23379   0.10072
H          H       0.81835   0.23273   0.20994   0.10279
H          H       0.77893   0.81967   0.28101   0.09965
H          H       0.23138   0.19417   0.39327   0.10561
H          H       0.74210   0.30081   0.32825   0.11837
H          H       0.69461   0.25315   0.24732   0.11534
H          H       0.25926   0.29795   0.14734   0.11833
H          H       0.30572   0.25169   0.22941   0.11419
H          H       0.26129   0.70432   0.33760   0.11949
H          H       0.30078   0.74757   0.26867   0.11818
H          H       0.70436   0.74160   0.30995   0.11759
H          H       0.74532   0.69682   0.24635   0.11850
H          H       0.87222   0.47124   0.76884   0.11594
H          H       0.12730   0.53506   0.78002   0.11197
H          H       0.53653   0.87235   0.78668   0.11465
H          H       0.46724   0.12151   0.77617   0.11444
H          H       0.12563   0.47106   0.70045   0.11686
H          H       0.87253   0.53489   0.70580   0.11218
H          H       0.46403   0.87171   0.71094   0.11379
H          H       0.53138   0.12162   0.72415   0.11402
H          H       0.95317   0.39363   0.92272   0.10098
H          H       0.06257   0.60863   0.95383   0.10640
H          H       0.62330   0.94902   0.96602   0.10480
H          H       0.40530   0.04801   0.93495   0.10199
H          H       0.05030   0.38612   0.62175   0.10216
H          H       0.93854   0.60112   0.53051   0.10995
H          H       0.37654   0.94281   0.53368   0.10416
H          H       0.59696   0.04584   0.56968   0.10012
H          H       0.00030   0.43103   0.88975   0.11112
H          H       0.01465   0.56540   0.91596   0.11638
H          H       0.57840   0.99480   0.89845   0.11784
H          H       0.44283   0.00148   0.87436   0.10841
H          H       0.00390   0.42364   0.66937   0.11383
H          H       0.98701   0.55886   0.58237   0.10943
H          H       0.42112   0.98944   0.56981   0.11917
H          H       0.55874   0.00000   0.60994   0.10818
H          H       0.83559   0.42730   0.66445   0.10474
H          H       0.15674   0.57100   0.74949   0.10191
H          H       0.58441   0.84111   0.97342   0.10691
H          H       0.44116   0.15765   0.86533   0.10498
H          H       0.16442   0.42793   0.83803   0.10512
H          H       0.83150   0.56596   0.61519   0.10479
H          H       0.43046   0.84940   0.81773   0.09974
H          H       0.56426   0.15692   0.70833   0.10541
H          H       0.78912   0.38431   0.66654   0.12388
H          H       0.20051   0.61585   0.74902   0.11933
H          H       0.62957   0.79698   0.95981   0.12408
H          H       0.39411   0.20107   0.84152   0.12196
H          H       0.21017   0.38342   0.84019   0.12683
H          H       0.78996   0.61190   0.64061   0.12148
H          H       0.38643   0.80509   0.83043   0.11701
H          H       0.61212   0.20029   0.74037   0.12381
H          H       0.87267   0.33215   0.04371   0.11048
H          H       0.14501   0.68849   0.97709   0.10179
H          H       0.68930   0.87036   0.79214   0.10421
H          H       0.31693   0.12369   0.85065   0.10619
H          H       0.12685   0.32290   0.44706   0.10589
H          H       0.87071   0.68655   0.64008   0.10424
H          H       0.29789   0.85598   0.47334   0.10185
H          H       0.67858   0.12415   0.60237   0.10816
H          H       0.91861   0.37677   0.05465   0.09837
H          H       0.10243   0.64368   0.98854   0.09914
H          H       0.64452   0.91351   0.80183   0.10022
H          H       0.36274   0.08011   0.86516   0.10188
H          H       0.08149   0.36816   0.43753   0.09802
H          H       0.91271   0.64124   0.62219   0.10157
H          H       0.34201   0.89769   0.44205   0.09704
H          H       0.63173   0.08061   0.57289   0.10100
H          H       0.82774   0.71935   0.61902   0.06016
H          H       0.16224   0.28735   0.70742   0.06323
H          H       0.27296   0.83531   0.66501   0.05690
H          H       0.70181   0.17044   0.54396   0.06789
H          H       0.16308   0.71939   0.80288   0.05797
H          H       0.83307   0.29292   0.75956   0.06345
H          H       0.72822   0.83521   0.85893   0.05618
H          H       0.29293   0.16918   0.93396   0.07120
H          H       0.81393   0.77619   0.67544   0.10060
H          H       0.18239   0.23226   0.80762   0.10339
H          H       0.21611   0.81850   0.68791   0.09845
H          H       0.76097   0.19186   0.54986   0.10526
H          H       0.17595   0.77594   0.75117   0.09863
H          H       0.80858   0.23822   0.62425   0.10215
H          H       0.77606   0.81962   0.76469   0.09983
H          H       0.23000   0.18801   0.88848   0.10602
H          H       0.74912   0.29721   0.89308   0.11800
H          H       0.70217   0.24952   0.82617   0.11227
H          H       0.25611   0.29573   0.66890   0.11877
H          H       0.30372   0.25040   0.74320   0.11522
H          H       0.25972   0.70112   0.81485   0.11846
H          H       0.30034   0.74424   0.75176   0.11709
H          H       0.70852   0.74009   0.84013   0.11689
H          H       0.74810   0.69625   0.75923   0.11822
C          C       0.96245   0.47197   0.29209   0.10111
C          C       0.04291   0.52649   0.31936   0.09702
C          C       0.53188   0.96025   0.30740   0.09390
C          C       0.47483   0.03566   0.28753   0.09382
C          C       0.03860   0.47026   0.21824   0.09582
C          C       0.95832   0.52429   0.18241   0.09542
C          C       0.46901   0.95785   0.17451   0.09881
C          C       0.52412   0.03549   0.19513   0.09656
C          C       0.79398   0.76804   0.23623  -0.13989
C          C       0.21140   0.24192   0.28929  -0.13430
C          C       0.22301   0.79326   0.20295  -0.14305
C          C       0.76450   0.21110   0.16789  -0.13202
C          C       0.20116   0.76940   0.24104  -0.14488
C          C       0.79125   0.23713   0.21847  -0.13630
C          C       0.77152   0.79276   0.27306  -0.13841
C          C       0.23738   0.21659   0.33743  -0.13475
C          C       0.92351   0.51583   0.19233  -0.01419
C          C       0.07284   0.48350   0.22078  -0.01433
C          C       0.48058   0.92439   0.21680  -0.01558
C          C       0.51603   0.07002   0.22471  -0.00929
C          C       0.07487   0.51912   0.27822  -0.01598
C          C       0.92561   0.48241   0.25379  -0.01171
C          C       0.52029   0.92554   0.29063  -0.01431
C          C       0.48395   0.07006   0.27530  -0.00770
C          C       0.89931   0.46130   0.27860  -0.15627
C          C       0.10129   0.54444   0.29687  -0.15730
C          C       0.54621   0.89981   0.32838  -0.15286
C          C       0.46240   0.09629   0.30605  -0.15319
C          C       0.09846   0.46210   0.18427  -0.15983
C          C       0.89546   0.53925   0.15786  -0.15644
C          C       0.45467   0.89829   0.19370  -0.15486
C          C       0.53824   0.09608   0.20540  -0.15247
C          C       0.90886   0.42905   0.33961   0.05393
C          C       0.09761   0.57752   0.36357   0.04172
C          C       0.58388   0.90822   0.38371   0.05187
C          C       0.43067   0.08898   0.34354   0.04790
C          C       0.09101   0.42697   0.14993   0.05588
C          C       0.90124   0.57223   0.11720   0.04457
C          C       0.41681   0.90439   0.12279   0.04781
C          C       0.56892   0.08834   0.15745   0.04735
C          C       0.94596   0.41955   0.37934  -0.12999
C          C       0.06697   0.58333   0.41720  -0.12217
C          C       0.59459   0.94313   0.41412  -0.12799
C          C       0.42323   0.05455   0.36235  -0.12510
C          C       0.05667   0.41445   0.14727  -0.13503
C          C       0.93497   0.57905   0.09299  -0.11923
C          C       0.40649   0.93719   0.06535  -0.11806
C          C       0.57511   0.05358   0.12126  -0.12796
C          C       0.97270   0.44053   0.35798  -0.18824
C          C       0.03960   0.55863   0.39533  -0.17276
C          C       0.56936   0.96926   0.37737  -0.17357
C          C       0.44512   0.02786   0.33801  -0.18852
C          C       0.03051   0.43542   0.18014  -0.16525
C          C       0.96329   0.55558   0.12233  -0.17960
C          C       0.43170   0.96400   0.09134  -0.17991
C          C       0.55300   0.02713   0.13741  -0.19111
C          C       0.87430   0.59891   0.11771   0.05572
C          C       0.11908   0.40291   0.13356   0.05060
C          C       0.38906   0.87848   0.12084   0.06561
C          C       0.59454   0.11539   0.15016   0.05678
C          C       0.12432   0.60494   0.37117   0.05958
C          C       0.88104   0.40495   0.35295   0.05237
C          C       0.61157   0.88193   0.39243   0.05536
C          C       0.40530   0.11637   0.35454   0.05706
C          C       0.84375   0.40659   0.24795  -0.12206
C          C       0.15671   0.59771   0.33543  -0.13090
C          C       0.60816   0.84863   0.43745  -0.13022
C          C       0.40612   0.14717   0.27939  -0.13400
C          C       0.15629   0.40856   0.23715  -0.12186
C          C       0.84789   0.59382   0.19574  -0.13588
C          C       0.39919   0.84535   0.17009  -0.12940
C          C       0.59591   0.14782   0.23601  -0.13165
C          C       0.81795   0.38225   0.24931  -0.15690
C          C       0.18148   0.62323   0.33655  -0.14325
C          C       0.63313   0.82377   0.42729  -0.14630
C          C       0.38097   0.17243   0.27729  -0.14585
C          C       0.18277   0.38462   0.23777  -0.16283
C          C       0.82373   0.61905   0.20895  -0.14771
C          C       0.37376   0.82185   0.18246  -0.13687
C          C       0.62156   0.17255   0.23766  -0.15040
C          C       0.82881   0.35425   0.34955   0.20150
C          C       0.17497   0.65770   0.37138   0.20014
C          C       0.66282   0.83120   0.37349   0.19370
C          C       0.35321   0.16807   0.34754   0.19311
C          C       0.17259   0.35340   0.13910   0.20649
C          C       0.82578   0.65143   0.15113   0.19746
C          C       0.33652   0.82997   0.14568   0.20498
C          C       0.64754   0.16605   0.15652   0.19156
C          C       0.86553   0.35323   0.46163  -0.18388
C          C       0.14326   0.66525   0.41241  -0.17473
C          C       0.66668   0.86476   0.33163  -0.17430
C          C       0.35290   0.13779   0.42847  -0.16459
C          C       0.13588   0.34812   0.02888  -0.18749
C          C       0.85127   0.65660   0.06819  -0.17037
C          C       0.32573   0.86258   0.08920  -0.17143
C          C       0.64567   0.13402   0.06560  -0.16656
C          C       0.89089   0.37846   0.46405  -0.12917
C          C       0.11869   0.63949   0.41205  -0.12810
C          C       0.64163   0.88939   0.34140  -0.13371
C          C       0.37848   0.11271   0.43184  -0.13063
C          C       0.10971   0.37269   0.02564  -0.12664
C          C       0.87461   0.63078   0.05035  -0.12876
C          C       0.35140   0.88608   0.07814  -0.12665
C          C       0.61960   0.10957   0.06248  -0.12829
C          C       0.80922   0.70788   0.19218   0.05630
C          C       0.19268   0.29879   0.19133   0.06527
C          C       0.28122   0.81090   0.17024   0.06372
C          C       0.70232   0.18890   0.13700   0.06299
C          C       0.19030   0.71204   0.31829   0.05901
C          C       0.81044   0.29737   0.31128   0.05805
C          C       0.71638   0.81008   0.33829   0.06867
C          C       0.29852   0.19314   0.36291   0.06342
C          C       0.73897   0.78343   0.29954   0.06361
C          C       0.27170   0.22012   0.31681   0.06173
C          C       0.21472   0.73706   0.28951   0.06608
C          C       0.78323   0.26973   0.27504   0.05654
C          C       0.25900   0.78542   0.21079   0.06562
C          C       0.72944   0.21677   0.17830   0.06344
C          C       0.78466   0.73322   0.22619   0.06055
C          C       0.21929   0.27162   0.22313   0.05505
C          C       0.72943   0.74847   0.28778  -0.09490
C          C       0.27920   0.24966   0.24621  -0.10435
C          C       0.25109   0.72938   0.30013  -0.09750
C          C       0.74794   0.27549   0.28416  -0.10208
C          C       0.27277   0.75308   0.26143  -0.09308
C          C       0.72170   0.24942   0.23809  -0.09985
C          C       0.75193   0.72385   0.25252  -0.10819
C          C       0.25357   0.27503   0.20050  -0.10341
C          C       0.96255   0.47152   0.79647   0.09921
C          C       0.04270   0.52580   0.81642   0.09537
C          C       0.53147   0.95943   0.80138   0.09558
C          C       0.47574   0.03537   0.79043   0.09886
C          C       0.03874   0.46913   0.72170   0.09587
C          C       0.95823   0.52345   0.68330   0.09805
C          C       0.46839   0.95749   0.67450   0.09557
C          C       0.52395   0.03486   0.69211   0.09970
C          C       0.79118   0.76834   0.71385  -0.13364
C          C       0.20886   0.23605   0.79197  -0.13328
C          C       0.22558   0.79280   0.71612  -0.14168
C          C       0.75880   0.21456   0.62814  -0.13106
C          C       0.20314   0.76898   0.75088  -0.14090
C          C       0.78549   0.24050   0.67001  -0.13257
C          C       0.76985   0.79259   0.76280  -0.14053
C          C       0.23560   0.21125   0.83745  -0.13366
C          C       0.92419   0.51619   0.70429  -0.01369
C          C       0.07359   0.48194   0.73031  -0.01511
C          C       0.48012   0.92371   0.70811  -0.01672
C          C       0.51552   0.06944   0.71795  -0.00804
C          C       0.07561   0.51765   0.78506  -0.01783
C          C       0.92620   0.48280   0.76600  -0.01150
C          C       0.51983   0.92466   0.77859  -0.01481
C          C       0.48390   0.06967   0.77205  -0.00645
C          C       0.89984   0.46193   0.79178  -0.15578
C          C       0.10286   0.54240   0.80835  -0.15704
C          C       0.54570   0.89892   0.81539  -0.15416
C          C       0.46178   0.09568   0.80063  -0.15208
C          C       0.09938   0.46045   0.69598  -0.15962
C          C       0.89699   0.54045   0.67588  -0.15518
C          C       0.45440   0.89732   0.68260  -0.15559
C          C       0.53763   0.09538   0.69688  -0.15130
C          C       0.90893   0.42916   0.84613   0.05460
C          C       0.09829   0.57621   0.86248   0.04481
C          C       0.58340   0.90736   0.87678   0.05207
C          C       0.43196   0.08824   0.85267   0.04124
C          C       0.09147   0.42548   0.65736   0.05783
C          C       0.90244   0.57241   0.62284   0.03679
C          C       0.41661   0.90392   0.62669   0.05215
C          C       0.56806   0.08759   0.64692   0.04530
C          C       0.94563   0.41898   0.88028  -0.12855
C          C       0.06627   0.58311   0.90393  -0.12206
C          C       0.59412   0.94226   0.91117  -0.12912
C          C       0.42646   0.05398   0.88252  -0.12715
C          C       0.05661   0.41329   0.64962  -0.13425
C          C       0.93489   0.57763   0.58465  -0.12294
C          C       0.40572   0.93730   0.58090  -0.12079
C          C       0.57440   0.05272   0.61394  -0.13006
C          C       0.97245   0.43966   0.85787  -0.18782
C          C       0.03871   0.55863   0.88337  -0.17377
C          C       0.56889   0.96842   0.87454  -0.17620
C          C       0.44776   0.02748   0.85171  -0.18908
C          C       0.03034   0.43437   0.68064  -0.16749
C          C       0.96261   0.55366   0.61271  -0.17586
C          C       0.43084   0.96408   0.60164  -0.17982
C          C       0.55288   0.02636   0.63533  -0.19012
C          C       0.87591   0.59964   0.61806   0.06507
C          C       0.11918   0.40095   0.64130   0.05197
C          C       0.38984   0.87754   0.63017   0.05525
C          C       0.59382   0.11460   0.63973   0.05732
C          C       0.12522   0.60327   0.86728   0.05419
C          C       0.88099   0.40498   0.85694   0.04686
C          C       0.61117   0.88097   0.88937   0.05542
C          C       0.40599   0.11495   0.86558   0.05872
C          C       0.84379   0.40714   0.75192  -0.12104
C          C       0.15398   0.59641   0.80306  -0.13160
C          C       0.60722   0.84759   0.93242  -0.12802
C          C       0.41408   0.14978   0.86278  -0.12707
C          C       0.15621   0.40533   0.74940  -0.12198
C          C       0.84049   0.59228   0.62031  -0.13140
C          C       0.40165   0.85059   0.73776  -0.13120
C          C       0.58877   0.14921   0.68128  -0.12717
C          C       0.81759   0.38301   0.75111  -0.16444
C          C       0.17885   0.62159   0.80126  -0.14735
C          C       0.63258   0.82277   0.92666  -0.14375
C          C       0.38781   0.17451   0.85035  -0.14528
C          C       0.18190   0.38046   0.75226  -0.15923
C          C       0.81666   0.61794   0.63238  -0.13809
C          C       0.37719   0.82585   0.74766  -0.14885
C          C       0.61556   0.17400   0.69963  -0.14963
C          C       0.82817   0.35475   0.84937   0.20275
C          C       0.17543   0.65556   0.85787   0.20181
C          C       0.66310   0.83024   0.87901   0.19320
C          C       0.35221   0.16587   0.84577   0.19784
C          C       0.17105   0.34954   0.65123   0.20477
C          C       0.82667   0.65254   0.63958   0.19945
C          C       0.33918   0.82800   0.65844   0.20744
C          C       0.64856   0.16571   0.67241   0.19733
C          C       0.86494   0.35281   0.95902  -0.18846
C          C       0.14719   0.66278   0.92475  -0.17635
C          C       0.66738   0.86384   0.83870  -0.17284
C          C       0.34431   0.13132   0.85605  -0.16935
C          C       0.13468   0.34569   0.53485  -0.18685
C          C       0.86162   0.66016   0.63195  -0.16533
C          C       0.32696   0.85472   0.54981  -0.17801
C          C       0.65335   0.13148   0.62393  -0.17230
C          C       0.89066   0.37788   0.96395  -0.12705
C          C       0.12306   0.63716   0.93085  -0.12731
C          C       0.64201   0.88844   0.84434  -0.13322
C          C       0.37051   0.10663   0.86482  -0.12263
C          C       0.10935   0.37119   0.52990  -0.12731
C          C       0.88552   0.63434   0.62195  -0.12655
C          C       0.35194   0.87849   0.53390  -0.12838
C          C       0.62659   0.10674   0.60814  -0.12308
C          C       0.80639   0.70858   0.66108   0.06223
C          C       0.18922   0.29377   0.69934   0.06302
C          C       0.28413   0.80955   0.68322   0.06724
C          C       0.70035   0.19089   0.63846   0.07029
C          C       0.19081   0.71063   0.81446   0.06101
C          C       0.80805   0.29878   0.78944   0.06864
C          C       0.71689   0.80914   0.84646   0.06853
C          C       0.29786   0.19011   0.86330   0.06656
C          C       0.73952   0.78267   0.80631   0.06516
C          C       0.27003   0.21630   0.81965   0.05939
C          C       0.21536   0.73573   0.78689   0.06455
C          C       0.78179   0.27065   0.76320   0.05537
C          C       0.26073   0.78395   0.71548   0.06546
C          C       0.72849   0.21785   0.68363   0.05830
C          C       0.78333   0.73336   0.71121   0.05974
C          C       0.21622   0.26678   0.73240   0.05626
C          C       0.73171   0.74754   0.80413  -0.09722
C          C       0.27706   0.24697   0.75688  -0.10147
C          C       0.25082   0.72698   0.78761  -0.09706
C          C       0.75152   0.27385   0.82002  -0.10624
C          C       0.27302   0.75060   0.75212  -0.09444
C          C       0.72553   0.24770   0.78246  -0.10202
C          C       0.75347   0.72337   0.75921  -0.10701
C          C       0.25078   0.27183   0.71514  -0.10108
N          N       0.98229   0.49746   0.24762   0.01663
N          N       0.01985   0.49704   0.27405   0.01149
N          N       0.50029   0.97967   0.23447   0.01285
N          N       0.49933   0.01482   0.23629   0.03459
N          N       0.80165   0.67559   0.17990  -0.27637
N          N       0.19974   0.32888   0.15666  -0.27408
N          N       0.31432   0.80482   0.17375  -0.28814
N          N       0.67325   0.19241   0.17909  -0.29649
N          N       0.20042   0.68150   0.35830  -0.27849
N          N       0.80208   0.32887   0.32948  -0.27379
N          N       0.68473   0.80407   0.35222  -0.28801
N          N       0.32770   0.19415   0.32112  -0.29389
N          N       0.98206   0.49647   0.74602   0.01664
N          N       0.01960   0.49631   0.77154   0.01500
N          N       0.49995   0.97917   0.73472   0.01726
N          N       0.49967   0.01434   0.73725   0.01970
N          N       0.80212   0.67620   0.66886  -0.28882
N          N       0.19738   0.32418   0.67323  -0.26990
N          N       0.31678   0.80272   0.68373  -0.27799
N          N       0.67481   0.19192   0.70566  -0.29311
N          N       0.20037   0.67947   0.84143  -0.27534
N          N       0.80153   0.32951   0.83410  -0.26943
N          N       0.68535   0.80306   0.86140  -0.28989
N          N       0.32674   0.19195   0.81959  -0.29447

