data_crystal

_audit_creation_method 'AiiDA-DDEC plugin'

_cell_length_a        35.92064
_cell_length_b        41.96745
_cell_length_c         8.21407

_cell_angle_alpha     90.89872
_cell_angle_beta     90.86557
_cell_angle_gamma     89.92945

_symmetry_space_group_name_Hall 'P 1'
_symmetry_space_group_name_H-M  'P 1'

loop_
_symmetry_equiv_pos_as_xyz
 'x,y,z'

loop_
_atom_site_label
_atom_site_type_symbol
_atom_site_fract_x
_atom_site_fract_y
_atom_site_fract_z
_atom_site_charge
H          H       0.42763   0.99547   0.11119   0.11510
H          H       0.57338   0.00473   0.11517   0.11519
H          H       0.57367   0.99706   0.38343   0.11484
H          H       0.42817   0.00347   0.37596   0.11424
H          H       0.38417   0.95116   0.04908   0.10601
H          H       0.61604   0.04885   0.05124   0.10663
H          H       0.61804   0.95367   0.44688   0.10667
H          H       0.38347   0.04690   0.43481   0.10547
H          H       0.46794   0.88220   0.17771   0.11594
H          H       0.53460   0.11825   0.19985   0.11405
H          H       0.53958   0.88314   0.27225   0.11217
H          H       0.46400   0.11749   0.30368   0.11383
H          H       0.35542   0.91345   0.24822   0.10597
H          H       0.64910   0.08761   0.23014   0.10372
H          H       0.65469   0.91736   0.28283   0.10433
H          H       0.34855   0.08415   0.27550   0.10389
H          H       0.30974   0.86929   0.25276   0.10287
H          H       0.69387   0.13236   0.22120   0.10306
H          H       0.70111   0.87379   0.30234   0.10291
H          H       0.30209   0.12752   0.29978   0.10084
H          H       0.38013   0.81225   0.47036   0.11392
H          H       0.61723   0.18506   0.44337   0.11370
H          H       0.62071   0.81440   0.06760   0.11263
H          H       0.38192   0.18600   0.05021   0.11555
H          H       0.42655   0.85635   0.48439   0.10656
H          H       0.57152   0.14055   0.45939   0.10350
H          H       0.57403   0.85850   0.05151   0.10134
H          H       0.42911   0.14233   0.03209   0.10427
H          H       0.29552   0.81424   0.21363   0.06381
H          H       0.70571   0.18676   0.18327   0.06215
H          H       0.71808   0.82179   0.36219   0.06243
H          H       0.28476   0.17843   0.36923   0.05852
H          H       0.24547   0.79104   0.16673   0.10991
H          H       0.74892   0.21490   0.16572   0.10925
H          H       0.75123   0.78583   0.31001   0.10590
H          H       0.25300   0.21367   0.29235   0.10790
H          H       0.20106   0.74599   0.17944   0.11610
H          H       0.79067   0.26154   0.18408   0.11549
H          H       0.79475   0.74024   0.30953   0.11460
H          H       0.20882   0.25852   0.27720   0.11485
H          H       0.28190   0.68510   0.38751   0.10975
H          H       0.71407   0.31609   0.43374   0.10967
H          H       0.71653   0.68382   0.08548   0.10925
H          H       0.28541   0.31593   0.08047   0.11271
H          H       0.32448   0.73168   0.38534   0.11842
H          H       0.67053   0.27013   0.41341   0.11894
H          H       0.67224   0.72938   0.09498   0.11961
H          H       0.32849   0.26952   0.08815   0.11957
H          H       0.24000   0.64940   0.40875   0.06722
H          H       0.76309   0.34559   0.39812   0.06913
H          H       0.76571   0.65355   0.12273   0.06764
H          H       0.23591   0.34592   0.11842   0.07027
H          H       0.84467   0.33395   0.16424   0.11178
H          H       0.14743   0.66912   0.15877   0.11302
H          H       0.14963   0.33184   0.32009   0.11248
H          H       0.85219   0.67124   0.36560   0.11394
H          H       0.89536   0.37362   0.21591   0.10577
H          H       0.10081   0.62696   0.21760   0.10367
H          H       0.10168   0.37371   0.26797   0.10511
H          H       0.90064   0.63075   0.29610   0.10479
H          H       0.83523   0.44054   0.44090   0.10388
H          H       0.16827   0.55434   0.45745   0.10178
H          H       0.16594   0.44294   0.06810   0.10212
H          H       0.83587   0.55779   0.05236   0.10073
H          H       0.78598   0.40027   0.38600   0.10411
H          H       0.21688   0.59450   0.39845   0.10318
H          H       0.21510   0.40265   0.11935   0.10512
H          H       0.78817   0.59844   0.12290   0.10314
H          H       0.94255   0.40086   0.04012   0.10899
H          H       0.05570   0.59809   0.04308   0.10953
H          H       0.05377   0.40109   0.44997   0.10948
H          H       0.94706   0.59999   0.45339   0.10917
H          H       0.99445   0.43694   0.11689   0.11677
H          H       0.00456   0.56133   0.11234   0.11476
H          H       0.00328   0.43913   0.37749   0.11424
H          H       0.99744   0.56219   0.37866   0.11567
H          H       0.86219   0.47145   0.18601   0.11211
H          H       0.13778   0.52957   0.19691   0.11194
H          H       0.13727   0.46955   0.32519   0.11273
H          H       0.86356   0.53216   0.29800   0.11093
H          H       0.42689   0.99561   0.61540   0.11528
H          H       0.57479   0.00313   0.62530   0.11539
H          H       0.57433   0.99435   0.88464   0.11566
H          H       0.42884   0.00365   0.87968   0.11334
H          H       0.38191   0.95220   0.56418   0.10619
H          H       0.61806   0.04688   0.56259   0.10734
H          H       0.61692   0.94965   0.95012   0.10867
H          H       0.38450   0.04736   0.93516   0.10612
H          H       0.46309   0.88222   0.70893   0.11257
H          H       0.53615   0.11696   0.69738   0.11368
H          H       0.53492   0.88124   0.78621   0.11626
H          H       0.46525   0.11709   0.79591   0.11393
H          H       0.34858   0.91451   0.74815   0.10540
H          H       0.65049   0.08680   0.74307   0.10581
H          H       0.64558   0.90910   0.73068   0.10289
H          H       0.35116   0.08492   0.75454   0.10523
H          H       0.30316   0.87019   0.73874   0.10380
H          H       0.69528   0.13149   0.73148   0.10372
H          H       0.69076   0.86440   0.73781   0.10291
H          H       0.30477   0.12850   0.77007   0.10041
H          H       0.38040   0.81234   0.94637   0.11379
H          H       0.61510   0.18710   0.94332   0.11451
H          H       0.61940   0.81322   0.51592   0.11500
H          H       0.38291   0.18688   0.54696   0.11587
H          H       0.42731   0.85608   0.94881   0.10289
H          H       0.56900   0.14280   0.96086   0.10420
H          H       0.57244   0.85697   0.49506   0.10515
H          H       0.42971   0.14303   0.52546   0.10358
H          H       0.28861   0.81543   0.69007   0.06452
H          H       0.70779   0.18577   0.68563   0.06431
H          H       0.70692   0.81140   0.81076   0.06524
H          H       0.28760   0.18014   0.83388   0.05936
H          H       0.24326   0.78840   0.63871   0.10860
H          H       0.75558   0.20843   0.60566   0.10778
H          H       0.75677   0.79158   0.91629   0.10823
H          H       0.24539   0.21095   0.84872   0.11022
H          H       0.20134   0.74169   0.64435   0.11711
H          H       0.79869   0.25461   0.63096   0.11761
H          H       0.80077   0.74575   0.90125   0.11793
H          H       0.20273   0.25712   0.83980   0.11708
H          H       0.27380   0.68802   0.88794   0.11107
H          H       0.71539   0.31495   0.88082   0.10848
H          H       0.72730   0.69209   0.65673   0.10995
H          H       0.27656   0.31284   0.61632   0.10992
H          H       0.31831   0.73289   0.87574   0.11775
H          H       0.67305   0.26820   0.86395   0.11687
H          H       0.68341   0.73768   0.65742   0.11645
H          H       0.32120   0.26754   0.63247   0.11759
H          H       0.22919   0.65729   0.88527   0.06483
H          H       0.76296   0.34726   0.88197   0.06606
H          H       0.77171   0.65709   0.63836   0.06744
H          H       0.22380   0.33766   0.64147   0.06805
H          H       0.84919   0.33080   0.65131   0.11157
H          H       0.15045   0.66773   0.62141   0.11199
H          H       0.14767   0.33082   0.88229   0.11283
H          H       0.85057   0.66976   0.87600   0.11400
H          H       0.89938   0.37086   0.70230   0.10547
H          H       0.10128   0.62780   0.67717   0.10648
H          H       0.09769   0.37086   0.83604   0.10671
H          H       0.89945   0.62944   0.81178   0.10659
H          H       0.83613   0.44171   0.92445   0.10281
H          H       0.16379   0.55936   0.93511   0.10266
H          H       0.15939   0.43749   0.59924   0.10123
H          H       0.83972   0.56011   0.55606   0.10317
H          H       0.78646   0.40164   0.86679   0.10136
H          H       0.20868   0.60190   0.86770   0.10160
H          H       0.20536   0.39486   0.66089   0.10276
H          H       0.79281   0.60114   0.63355   0.10248
H          H       0.94517   0.39952   0.55370   0.10834
H          H       0.05775   0.59695   0.53244   0.10781
H          H       0.05366   0.40235   0.96769   0.10707
H          H       0.94484   0.59928   0.95926   0.10872
H          H       0.99606   0.43707   0.62135   0.11687
H          H       0.00599   0.56177   0.61301   0.11567
H          H       0.00365   0.43927   0.88405   0.11467
H          H       0.99595   0.56311   0.87744   0.11749
H          H       0.86298   0.47003   0.67970   0.11059
H          H       0.13855   0.52883   0.70124   0.11097
H          H       0.13724   0.47028   0.83485   0.11127
H          H       0.86275   0.53048   0.80085   0.11065
C          C       0.53114   0.96447   0.29505   0.09891
C          C       0.47136   0.03597   0.30363   0.09830
C          C       0.47237   0.96389   0.18243   0.09853
C          C       0.52963   0.03658   0.19353   0.09969
C          C       0.48398   0.93170   0.19868  -0.01336
C          C       0.51843   0.06879   0.21705  -0.01356
C          C       0.52126   0.93208   0.26587  -0.01119
C          C       0.48153   0.06840   0.28366  -0.01229
C          C       0.43662   0.97105   0.12512  -0.18187
C          C       0.56470   0.02920   0.13280  -0.18589
C          C       0.56598   0.97245   0.36079  -0.18307
C          C       0.43621   0.02807   0.36076  -0.18174
C          C       0.41226   0.94586   0.09208  -0.12643
C          C       0.58855   0.05425   0.09815  -0.12475
C          C       0.59089   0.94784   0.39412  -0.12777
C          C       0.41118   0.05273   0.39259  -0.12624
C          C       0.42269   0.91366   0.11239   0.04988
C          C       0.57831   0.08650   0.12168   0.05049
C          C       0.58210   0.91545   0.36309   0.04758
C          C       0.42055   0.08517   0.37367   0.04909
C          C       0.45935   0.90681   0.16082  -0.15662
C          C       0.54269   0.09353   0.17932  -0.15880
C          C       0.54670   0.90784   0.30023  -0.15854
C          C       0.45641   0.09272   0.32182  -0.15792
C          C       0.39466   0.88794   0.09858   0.06751
C          C       0.60568   0.11216   0.09802   0.06921
C          C       0.61017   0.89020   0.38636   0.07072
C          C       0.39257   0.11050   0.39819   0.06940
C          C       0.36072   0.89149   0.18015  -0.14349
C          C       0.64169   0.10920   0.16563  -0.13872
C          C       0.64701   0.89478   0.33613  -0.14086
C          C       0.35601   0.10629   0.33823  -0.14071
C          C       0.33524   0.86658   0.18376  -0.12446
C          C       0.66673   0.13439   0.16131  -0.12541
C          C       0.67299   0.87025   0.34645  -0.12467
C          C       0.33001   0.13074   0.35074  -0.12825
C          C       0.34208   0.83764   0.10070   0.05149
C          C       0.65723   0.16293   0.08338   0.05259
C          C       0.66325   0.84050   0.40999   0.05154
C          C       0.33956   0.16023   0.42341   0.05308
C          C       0.37542   0.83443   0.01367  -0.10213
C          C       0.62195   0.16532   0.00738  -0.09826
C          C       0.62656   0.83604   0.46372  -0.09277
C          C       0.37586   0.16428   0.48758  -0.09713
C          C       0.40147   0.85897   0.01512  -0.13644
C          C       0.59645   0.14055   0.01737  -0.14020
C          C       0.60056   0.86043   0.45094  -0.13751
C          C       0.40181   0.13984   0.47441  -0.13638
C          C       0.31474   0.81205   0.11101   0.07243
C          C       0.68363   0.18923   0.09021   0.06931
C          C       0.69152   0.81571   0.41887   0.06420
C          C       0.31170   0.18535   0.42437   0.06357
C          C       0.28584   0.76482   0.02254   0.19749
C          C       0.70735   0.23848   0.01410   0.19817
C          C       0.71393   0.76511   0.48594   0.19572
C          C       0.29019   0.23721   0.46786   0.19324
C          C       0.25198   0.76856   0.10578  -0.17223
C          C       0.74115   0.23659   0.10306  -0.16957
C          C       0.74603   0.76588   0.38916  -0.16965
C          C       0.25800   0.23480   0.36772  -0.17092
C          C       0.22679   0.74355   0.11219  -0.14182
C          C       0.76480   0.26257   0.11396  -0.14096
C          C       0.77058   0.74045   0.38759  -0.13998
C          C       0.23312   0.25997   0.35744  -0.14525
C          C       0.23385   0.71397   0.03455   0.19774
C          C       0.75638   0.29137   0.03514   0.20039
C          C       0.76453   0.71320   0.48205   0.19817
C          C       0.23887   0.28846   0.44754   0.19795
C          C       0.27347   0.70748   0.44466  -0.16366
C          C       0.72326   0.29265   0.47251  -0.16493
C          C       0.72544   0.70725   0.04674  -0.16242
C          C       0.27642   0.29305   0.02979  -0.16484
C          C       0.29744   0.73344   0.44269  -0.14122
C          C       0.69872   0.26710   0.46107  -0.14325
C          C       0.70052   0.73258   0.05265  -0.14492
C          C       0.30071   0.26722   0.03455  -0.13814
C          C       0.21583   0.65746   0.47918   0.06502
C          C       0.78522   0.33913   0.48564   0.06532
C          C       0.78752   0.66053   0.03763   0.06868
C          C       0.21428   0.34006   0.02659   0.06788
C          C       0.81235   0.36509   0.01229   0.04745
C          C       0.18107   0.63838   0.01038   0.04914
C          C       0.18061   0.36059   0.49306   0.04725
C          C       0.81941   0.63884   0.50278   0.05122
C          C       0.84352   0.35744   0.11037  -0.10316
C          C       0.15019   0.64511   0.10855  -0.10444
C          C       0.15099   0.35487   0.38244  -0.10648
C          C       0.85030   0.64692   0.40843  -0.10941
C          C       0.87159   0.37957   0.13838  -0.13565
C          C       0.12444   0.62160   0.14051  -0.13788
C          C       0.12447   0.37825   0.35383  -0.14319
C          C       0.87705   0.62430   0.37037  -0.13481
C          C       0.86910   0.41039   0.07327   0.06791
C          C       0.12885   0.59024   0.07943   0.07025
C          C       0.12735   0.40856   0.42946   0.06986
C          C       0.87339   0.59254   0.42138   0.06875
C          C       0.83819   0.41665   0.48899  -0.14386
C          C       0.16439   0.57910   0.49466  -0.14339
C          C       0.16200   0.41848   0.02537  -0.14151
C          C       0.83908   0.58225   0.01290  -0.14087
C          C       0.81051   0.39401   0.45826  -0.12471
C          C       0.19169   0.60164   0.46170  -0.12763
C          C       0.18963   0.39575   0.05451  -0.12435
C          C       0.81228   0.60508   0.05230  -0.12646
C          C       0.89900   0.43366   0.10765   0.05164
C          C       0.10006   0.56638   0.11504   0.05110
C          C       0.09871   0.43283   0.39265   0.05116
C          C       0.90208   0.56876   0.38012   0.05097
C          C       0.93658   0.42454   0.08874  -0.12660
C          C       0.06220   0.57483   0.09293  -0.12738
C          C       0.06074   0.42459   0.40558  -0.12598
C          C       0.94008   0.57669   0.40178  -0.12632
C          C       0.96600   0.44492   0.12853  -0.18236
C          C       0.03329   0.55427   0.12958  -0.18552
C          C       0.03222   0.44569   0.36611  -0.18595
C          C       0.96854   0.55552   0.36278  -0.18324
C          C       0.95764   0.47537   0.18779   0.09959
C          C       0.04245   0.52463   0.19277   0.09923
C          C       0.04204   0.47535   0.30689   0.09876
C          C       0.95870   0.52558   0.30050   0.09837
C          C       0.92005   0.48518   0.20776  -0.01324
C          C       0.08021   0.51554   0.21888  -0.01305
C          C       0.07995   0.48429   0.29006  -0.01434
C          C       0.92075   0.51694   0.27707  -0.01477
C          C       0.89096   0.46434   0.16643  -0.16168
C          C       0.10884   0.53632   0.17675  -0.15974
C          C       0.10812   0.46312   0.33727  -0.16036
C          C       0.89264   0.53852   0.31820  -0.16046
C          C       0.53002   0.96292   0.80192   0.09750
C          C       0.47220   0.03561   0.80443   0.09964
C          C       0.47085   0.96357   0.69213   0.09887
C          C       0.53065   0.03531   0.69649   0.09992
C          C       0.48109   0.93120   0.71471  -0.01322
C          C       0.51970   0.06770   0.71658  -0.01319
C          C       0.51859   0.93077   0.77851  -0.01235
C          C       0.48267   0.06786   0.78199  -0.01262
C          C       0.43518   0.97116   0.63457  -0.18089
C          C       0.56603   0.02766   0.63977  -0.18444
C          C       0.56539   0.96997   0.86523  -0.18429
C          C       0.43704   0.02812   0.86239  -0.18440
C          C       0.40982   0.94642   0.60761  -0.12919
C          C       0.59034   0.05252   0.60633  -0.12784
C          C       0.58933   0.94468   0.89940  -0.12605
C          C       0.41221   0.05296   0.89248  -0.12547
C          C       0.41906   0.91415   0.63408   0.04906
C          C       0.58022   0.08489   0.62594   0.04942
C          C       0.57904   0.91259   0.87062   0.05162
C          C       0.42172   0.08524   0.86982   0.05024
C          C       0.45541   0.90680   0.68470  -0.15760
C          C       0.54429   0.09219   0.67891  -0.15580
C          C       0.54312   0.90579   0.81214  -0.15979
C          C       0.45758   0.09244   0.81694  -0.15810
C          C       0.39090   0.88866   0.61701   0.06980
C          C       0.60770   0.11053   0.60310   0.06943
C          C       0.60673   0.88684   0.89026   0.06977
C          C       0.39358   0.11060   0.89123   0.07145
C          C       0.35542   0.89237   0.68474  -0.14145
C          C       0.64333   0.10803   0.67507  -0.14167
C          C       0.64043   0.88861   0.80640  -0.13901
C          C       0.35783   0.10677   0.82168  -0.14180
C          C       0.32999   0.86734   0.68047  -0.12488
C          C       0.66834   0.13325   0.66968  -0.12480
C          C       0.66574   0.86351   0.81066  -0.12370
C          C       0.33183   0.13131   0.82998  -0.12685
C          C       0.33861   0.83811   0.60382   0.04954
C          C       0.65903   0.16144   0.58811   0.04970
C          C       0.65877   0.83653   0.90468   0.04917
C          C       0.34031   0.16031   0.91039   0.04921
C          C       0.37375   0.83467   0.53194  -0.09879
C          C       0.62399   0.16350   0.50961  -0.09598
C          C       0.62561   0.83519   0.99354  -0.09975
C          C       0.37567   0.16381   0.98522  -0.09699
C          C       0.39948   0.85934   0.54037  -0.13616
C          C       0.59865   0.13861   0.51925  -0.13816
C          C       0.59977   0.85976   0.98394  -0.13920
C          C       0.40185   0.13947   0.97410  -0.13825
C          C       0.31152   0.81226   0.60394   0.07087
C          C       0.68538   0.18780   0.59357   0.07170
C          C       0.68552   0.81044   0.90492   0.07385
C          C       0.31269   0.18576   0.90734   0.07077
C          C       0.28781   0.76294   0.51554   0.19945
C          C       0.70933   0.23645   0.51249   0.19989
C          C       0.71081   0.76317   0.00082   0.20228
C          C       0.29050   0.23705   0.97016   0.19970
C          C       0.25229   0.76589   0.58517  -0.16580
C          C       0.74609   0.23200   0.57067  -0.17141
C          C       0.74773   0.76793   0.95071  -0.17148
C          C       0.25448   0.23368   0.90091  -0.17009
C          C       0.22846   0.73996   0.58777  -0.13913
C          C       0.77045   0.25755   0.58364  -0.14161
C          C       0.77249   0.74257   0.94368  -0.13942
C          C       0.23030   0.25945   0.89539  -0.14281
C          C       0.23851   0.71015   0.51981   0.19893
C          C       0.75971   0.28833   0.53485   0.19925
C          C       0.76195   0.71171   0.99024   0.19584
C          C       0.24043   0.28962   0.96043   0.19939
C          C       0.26741   0.71045   0.94933  -0.16730
C          C       0.72287   0.29320   0.94385  -0.16505
C          C       0.73282   0.71254   0.58116  -0.16301
C          C       0.27107   0.29099   0.54722  -0.16823
C          C       0.29255   0.73545   0.94246  -0.14455
C          C       0.69900   0.26714   0.93366  -0.14311
C          C       0.70807   0.73804   0.58220  -0.14487
C          C       0.29621   0.26583   0.55639  -0.14046
C          C       0.20818   0.66320   0.97701   0.07040
C          C       0.78326   0.34153   0.97884   0.06932
C          C       0.79129   0.66281   0.54126   0.06919
C          C       0.20815   0.33577   0.52549   0.07370
C          C       0.81426   0.36284   0.51670   0.04844
C          C       0.18698   0.63382   0.50783   0.04992
C          C       0.18503   0.36392   0.00125   0.05191
C          C       0.81619   0.63682   0.00267   0.04855
C          C       0.84680   0.35486   0.60490  -0.10082
C          C       0.15374   0.64289   0.58468  -0.10164
C          C       0.15118   0.35540   0.92361  -0.10371
C          C       0.84816   0.64528   0.91627  -0.10606
C          C       0.87467   0.37724   0.63184  -0.13568
C          C       0.12643   0.62058   0.61437  -0.13470
C          C       0.12337   0.37785   0.89885  -0.13441
C          C       0.87522   0.62274   0.88132  -0.13287
C          C       0.87089   0.40867   0.57515   0.06949
C          C       0.13118   0.58818   0.57091   0.07261
C          C       0.12830   0.41003   0.94674   0.07073
C          C       0.87117   0.59073   0.92812   0.06976
C          C       0.83776   0.41820   0.97796  -0.14420
C          C       0.16015   0.58331   0.98474  -0.14361
C          C       0.15731   0.41445   0.53727  -0.14324
C          C       0.84233   0.58441   0.51366  -0.14619
C          C       0.81001   0.39570   0.94564  -0.12568
C          C       0.18548   0.60723   0.94754  -0.12637
C          C       0.18309   0.39051   0.57195  -0.12396
C          C       0.81606   0.60738   0.55684  -0.12664
C          C       0.90054   0.43227   0.60957   0.04963
C          C       0.10163   0.56527   0.60996   0.04825
C          C       0.09907   0.43363   0.90761   0.04838
C          C       0.90040   0.56738   0.88622   0.04825
C          C       0.93841   0.42353   0.59542  -0.12509
C          C       0.06391   0.57407   0.58698  -0.12150
C          C       0.06101   0.42549   0.91983  -0.12312
C          C       0.93827   0.57606   0.90568  -0.12228
C          C       0.96737   0.44464   0.63178  -0.18062
C          C       0.03461   0.55431   0.62908  -0.18445
C          C       0.03250   0.44618   0.87446  -0.18557
C          C       0.96726   0.55565   0.86305  -0.18321
C          C       0.95836   0.47530   0.68680   0.10095
C          C       0.04313   0.52473   0.69463   0.10015
C          C       0.04209   0.47576   0.81287   0.10248
C          C       0.95821   0.52561   0.79937   0.10093
C          C       0.92052   0.48458   0.70556  -0.01412
C          C       0.08075   0.51544   0.72236  -0.01230
C          C       0.08006   0.48455   0.79710  -0.01199
C          C       0.92040   0.51635   0.77575  -0.01307
C          C       0.89196   0.46319   0.66408  -0.15865
C          C       0.10973   0.53563   0.67814  -0.15856
C          C       0.10817   0.46368   0.84756  -0.15980
C          C       0.89176   0.53721   0.82076  -0.15737
N          N       0.31348   0.78825   0.00898  -0.30041
N          N       0.68092   0.21390  -0.00178  -0.30151
N          N       0.68616   0.78868   0.48859  -0.30051
N          N       0.31791   0.21376   0.48165  -0.29298
N          N       0.20698   0.69030   0.05434  -0.29950
N          N       0.78284   0.31539   0.05983  -0.29989
N          N       0.79066   0.68896   0.46016  -0.29820
N          N       0.21250   0.31253   0.42228  -0.29810
N          N       0.50133   0.98370   0.24215   0.01506
N          N       0.50087   0.01676   0.24761   0.01714
N          N       0.98093   0.50018   0.24537   0.01708
N          N       0.01953   0.49996   0.24661   0.01663
N          N       0.31461   0.78724   0.51073  -0.30404
N          N       0.68241   0.21230   0.50051  -0.30065
N          N       0.68365   0.78712   0.00560  -0.29754
N          N       0.31761   0.21298   0.98081  -0.29951
N          N       0.21212   0.68610   0.53737  -0.30011
N          N       0.78673   0.31194   0.55736  -0.29928
N          N       0.78896   0.68811   0.96999  -0.30132
N          N       0.21345   0.31351   0.94412  -0.30530
N          N       0.50097   0.98280   0.74601   0.01570
N          N       0.50151   0.01592   0.75115   0.01395
N          N       0.98110   0.50064   0.74281   0.01451
N          N       0.01979   0.50043   0.75051   0.01687

