data_crystal

_audit_creation_method 'AiiDA-DDEC plugin'

_cell_length_a        28.62586
_cell_length_b        31.48672
_cell_length_c         8.15553

_cell_angle_alpha     88.62387
_cell_angle_beta     90.10131
_cell_angle_gamma     89.99445

_symmetry_space_group_name_Hall 'P 1'
_symmetry_space_group_name_H-M  'P 1'

loop_
_symmetry_equiv_pos_as_xyz
 'x,y,z'

loop_
_atom_site_label
_atom_site_type_symbol
_atom_site_fract_x
_atom_site_fract_y
_atom_site_fract_z
_atom_site_charge
H          H       0.54755   0.84436   0.22892   0.11470
H          H       0.45178   0.15588   0.25006   0.11433
H          H       0.45315   0.84494   0.26779   0.11486
H          H       0.54676   0.15714   0.29556   0.11599
H          H       0.64968   0.93783   0.07887   0.10443
H          H       0.35336   0.06295   0.08271   0.10478
H          H       0.35324   0.93664   0.43431   0.10395
H          H       0.65079   0.06403   0.43118   0.10563
H          H       0.59366   0.99590   0.12741   0.11545
H          H       0.41180   0.00569   0.12140   0.11390
H          H       0.41120   0.99434   0.39938   0.11402
H          H       0.59446   0.00575   0.39063   0.11548
H          H       0.59735   0.80436   0.06090   0.10703
H          H       0.40157   0.19708   0.07236   0.10766
H          H       0.40328   0.80237   0.43238   0.10704
H          H       0.60269   0.19649   0.47272   0.10701
H          H       0.65702   0.74762   0.11020   0.11729
H          H       0.34099   0.25222   0.12192   0.11845
H          H       0.34326   0.74715   0.37766   0.11711
H          H       0.66164   0.25279   0.40737   0.11764
H          H       0.75075   0.83995   0.30701   0.10175
H          H       0.25007   0.15626   0.32584   0.10065
H          H       0.25070   0.84383   0.18718   0.10185
H          H       0.74394   0.16194   0.14942   0.10299
H          H       0.69103   0.89615   0.26440   0.10103
H          H       0.31059   0.10146   0.28031   0.10066
H          H       0.31082   0.89868   0.23677   0.10028
H          H       0.68540   0.10604   0.21297   0.10134
H          H       0.77533   0.76833   0.30145   0.05931
H          H       0.22347   0.22805   0.31509   0.06037
H          H       0.22441   0.77206   0.19384   0.06182
H          H       0.77117   0.23206   0.15839   0.05984
H          H       0.82533   0.27357   0.29383   0.10340
H          H       0.17785   0.72401   0.35127   0.10464
H          H       0.17445   0.27410   0.16256   0.10417
H          H       0.82186   0.72294   0.16064   0.10315
H          H       0.88616   0.32790   0.24146   0.10032
H          H       0.11683   0.66973   0.30822   0.10032
H          H       0.11429   0.32940   0.19807   0.10043
H          H       0.88254   0.66835   0.20984   0.10024
H          H       0.78206   0.41322   0.04320   0.10470
H          H       0.21422   0.59536   0.03515   0.10489
H          H       0.21486   0.40798   0.43895   0.10622
H          H       0.78286   0.58980   0.46888   0.10537
H          H       0.72083   0.35881   0.09967   0.12016
H          H       0.27584   0.64948   0.08217   0.12033
H          H       0.27569   0.35286   0.39776   0.12147
H          H       0.72161   0.64476   0.41698   0.12080
H          H       0.92957   0.36953   0.04008   0.10313
H          H       0.06957   0.63931   0.08836   0.10396
H          H       0.06835   0.36402   0.39925   0.10301
H          H       0.92869   0.63394   0.42503   0.10338
H          H       0.99295   0.42149   0.08505   0.11158
H          H       0.00551   0.58722   0.11772   0.11650
H          H       0.00481   0.41632   0.36069   0.11535
H          H       0.99294   0.58318   0.37868   0.11323
H          H       0.82795   0.45627   0.23032   0.11267
H          H       0.17129   0.54371   0.21904   0.11404
H          H       0.17098   0.45766   0.25627   0.11278
H          H       0.82682   0.54174   0.27913   0.11390
H          H       0.54534   0.84291   0.73582   0.11597
H          H       0.45600   0.15666   0.72769   0.11582
H          H       0.45153   0.84341   0.78202   0.11690
H          H       0.54827   0.15545   0.77803   0.11479
H          H       0.64702   0.93603   0.57886   0.10529
H          H       0.35172   0.06614   0.58552   0.10527
H          H       0.34955   0.93595   0.92351   0.10602
H          H       0.64951   0.06131   0.92948   0.10432
H          H       0.59060   0.99418   0.62298   0.11298
H          H       0.40755   0.00705   0.62567   0.11535
H          H       0.40737   0.99380   0.88994   0.11539
H          H       0.59213   0.00384   0.88937   0.11387
H          H       0.59899   0.80375   0.54526   0.10709
H          H       0.40357   0.19833   0.54765   0.10566
H          H       0.39692   0.80344   0.96872   0.10582
H          H       0.59965   0.19473   0.95570   0.10779
H          H       0.65934   0.74770   0.59503   0.11708
H          H       0.34581   0.25556   0.60561   0.11714
H          H       0.33894   0.74693   0.90498   0.11714
H          H       0.65792   0.25179   0.89465   0.11794
H          H       0.74585   0.83836   0.83747   0.10035
H          H       0.25736   0.16373   0.84906   0.10057
H          H       0.25585   0.83893   0.63844   0.10039
H          H       0.74785   0.16021   0.67368   0.10207
H          H       0.68587   0.89397   0.78985   0.10275
H          H       0.31521   0.10706   0.79577   0.10219
H          H       0.31352   0.89509   0.70040   0.10246
H          H       0.68952   0.10362   0.72989   0.10207
H          H       0.77323   0.76789   0.82058   0.06021
H          H       0.23100   0.23441   0.82358   0.05974
H          H       0.22826   0.76842   0.65944   0.05971
H          H       0.77322   0.23111   0.68021   0.05982
H          H       0.82082   0.27617   0.82444   0.10193
H          H       0.17706   0.72517   0.82578   0.10587
H          H       0.18500   0.27897   0.65307   0.10604
H          H       0.82271   0.72248   0.66267   0.10476
H          H       0.88218   0.33035   0.77378   0.10227
H          H       0.11477   0.67188   0.78376   0.10067
H          H       0.12160   0.33122   0.68956   0.10106
H          H       0.88353   0.66778   0.70995   0.10015
H          H       0.78303   0.40900   0.51213   0.10410
H          H       0.21385   0.59024   0.55204   0.10477
H          H       0.21476   0.40982   0.96362   0.10289
H          H       0.78427   0.58935   0.97117   0.10531
H          H       0.72118   0.35465   0.56519   0.12078
H          H       0.27666   0.64328   0.59944   0.12134
H          H       0.27880   0.35764   0.92347   0.12093
H          H       0.72296   0.64402   0.92011   0.12106
H          H       0.92811   0.36624   0.54919   0.10440
H          H       0.06777   0.63680   0.58242   0.10286
H          H       0.07147   0.36161   0.89451   0.10329
H          H       0.93015   0.63120   0.93026   0.10371
H          H       0.99209   0.41771   0.59217   0.11336
H          H       0.00436   0.58417   0.61422   0.11597
H          H       0.00628   0.41209   0.85441   0.11627
H          H       0.99345   0.57919   0.88504   0.11212
H          H       0.82666   0.45628   0.71607   0.11391
H          H       0.16998   0.54344   0.73283   0.11235
H          H       0.17177   0.45927   0.77630   0.11386
H          H       0.82697   0.54155   0.77191   0.11326
C          C       0.46488   0.95220   0.31352   0.09875
C          C       0.53868   0.04848   0.31770   0.09758
C          C       0.53881   0.95286   0.20613   0.09845
C          C       0.46462   0.04850   0.21033   0.09806
C          C       0.86353   0.44909   0.19307  -0.15932
C          C       0.13536   0.55293   0.19276  -0.15758
C          C       0.13501   0.44885   0.28350  -0.15753
C          C       0.86278   0.55024   0.30686  -0.15777
C          C       0.47753   0.90943   0.28454  -0.01312
C          C       0.52442   0.09156   0.29810  -0.01368
C          C       0.52501   0.90970   0.22599  -0.01259
C          C       0.47686   0.09142   0.23893  -0.01262
C          C       0.55721   0.87719   0.20127  -0.15269
C          C       0.44348   0.12343   0.21746  -0.15506
C          C       0.44436   0.87715   0.30208  -0.15511
C          C       0.55664   0.12426   0.32116  -0.15287
C          C       0.60313   0.88723   0.15547   0.04714
C          C       0.39802   0.11319   0.16783   0.04677
C          C       0.39859   0.88694   0.34896   0.04614
C          C       0.60308   0.11443   0.36123   0.04767
C          C       0.61470   0.93025   0.12269  -0.12566
C          C       0.38803   0.07068   0.12808  -0.12574
C          C       0.38810   0.92924   0.39025  -0.12373
C          C       0.61524   0.07150   0.39286  -0.12566
C          C       0.58326   0.96320   0.14787  -0.18460
C          C       0.42077   0.03820   0.14775  -0.18350
C          C       0.42065   0.96196   0.37352  -0.18366
C          C       0.58366   0.03841   0.37211  -0.18261
C          C       0.63965   0.85424   0.16176   0.07175
C          C       0.36070   0.14539   0.17561   0.07333
C          C       0.36162   0.85453   0.33656   0.07344
C          C       0.63963   0.14734   0.34570   0.07238
C          C       0.63073   0.81202   0.11705  -0.13543
C          C       0.36861   0.18828   0.13012  -0.13455
C          C       0.37008   0.81137   0.37645  -0.13491
C          C       0.63348   0.18907   0.40068  -0.13642
C          C       0.66380   0.78031   0.14343  -0.09722
C          C       0.33498   0.21912   0.15682  -0.09969
C          C       0.33672   0.78046   0.34707  -0.09893
C          C       0.66621   0.22056   0.36484  -0.10041
C          C       0.70717   0.78982   0.21547   0.04749
C          C       0.29201   0.20816   0.23006   0.04705
C          C       0.29337   0.79165   0.27659   0.04790
C          C       0.70616   0.21129   0.27177   0.04625
C          C       0.71717   0.83226   0.25209  -0.12870
C          C       0.28322   0.16517   0.26943  -0.12720
C          C       0.28409   0.83479   0.24202  -0.12811
C          C       0.71338   0.16929   0.22287  -0.12910
C          C       0.68387   0.86391   0.22639  -0.14244
C          C       0.31700   0.13431   0.24249  -0.14470
C          C       0.31768   0.86568   0.27125  -0.14287
C          C       0.68069   0.13784   0.25954  -0.14465
C          C       0.74111   0.75699   0.25877   0.06473
C          C       0.25714   0.24018   0.26854   0.06335
C          C       0.25853   0.75981   0.23601   0.06388
C          C       0.73966   0.24377   0.22018   0.06717
C          C       0.76880   0.31240   0.19912   0.20069
C          C       0.23084   0.69085   0.21590   0.19747
C          C       0.22920   0.30946   0.28044   0.19901
C          C       0.76772   0.68790   0.28912   0.19702
C          C       0.81608   0.30370   0.23425  -0.17882
C          C       0.18532   0.69662   0.27682  -0.18266
C          C       0.18295   0.30285   0.22775  -0.18133
C          C       0.81377   0.69461   0.23403  -0.17883
C          C       0.85022   0.33442   0.20533  -0.12963
C          C       0.15107   0.66601   0.25258  -0.13015
C          C       0.14915   0.33409   0.24771  -0.13009
C          C       0.84784   0.66380   0.26154  -0.13006
C          C       0.83873   0.37486   0.14042   0.05979
C          C       0.16081   0.62881   0.16684   0.05461
C          C       0.15984   0.37288   0.32127   0.05741
C          C       0.83740   0.62526   0.34424   0.05685
C          C       0.79166   0.38271   0.09911  -0.12809
C          C       0.20625   0.62344   0.10512  -0.12682
C          C       0.20593   0.37888   0.37673  -0.12539
C          C       0.79150   0.61900   0.40144  -0.12629
C          C       0.75722   0.35236   0.12962  -0.15332
C          C       0.24085   0.65360   0.13090  -0.15301
C          C       0.24012   0.34810   0.35486  -0.15482
C          C       0.75710   0.64958   0.37304  -0.15227
C          C       0.87449   0.40870   0.13564   0.04959
C          C       0.12467   0.59552   0.15570   0.05274
C          C       0.12399   0.40664   0.32640   0.05033
C          C       0.87348   0.59176   0.35201   0.05186
C          C       0.92130   0.40015   0.09195  -0.12819
C          C       0.07765   0.60656   0.12348  -0.12960
C          C       0.07681   0.39631   0.35933  -0.12711
C          C       0.92062   0.60216   0.38373  -0.13036
C          C       0.95723   0.42932   0.11503  -0.18354
C          C       0.04127   0.57733   0.13832  -0.18001
C          C       0.04070   0.42566   0.33981  -0.18122
C          C       0.95708   0.57371   0.35915  -0.18223
C          C       0.94617   0.46811   0.18431   0.09856
C          C       0.05211   0.53576   0.18895   0.09851
C          C       0.05199   0.46679   0.28598   0.09910
C          C       0.94615   0.53368   0.30017   0.09739
C          C       0.89893   0.47890   0.21634  -0.01143
C          C       0.09947   0.52304   0.21012  -0.01177
C          C       0.09939   0.47895   0.26313  -0.01384
C          C       0.89877   0.52121   0.28027  -0.01109
C          C       0.46213   0.95143   0.81231   0.09723
C          C       0.53768   0.04711   0.80923   0.09733
C          C       0.53629   0.95140   0.70668   0.09670
C          C       0.46344   0.04834   0.70281   0.09781
C          C       0.86245   0.44830   0.68436  -0.15849
C          C       0.13420   0.55203   0.70124  -0.15700
C          C       0.13584   0.44919   0.79679  -0.15671
C          C       0.86304   0.54941   0.80076  -0.15733
C          C       0.47520   0.90840   0.78929  -0.01235
C          C       0.52488   0.09035   0.78403  -0.01303
C          C       0.52273   0.90832   0.73079  -0.01217
C          C       0.47751   0.09110   0.72463  -0.01235
C          C       0.55498   0.87568   0.70690  -0.15650
C          C       0.44572   0.12428   0.70094  -0.15357
C          C       0.44231   0.87598   0.81002  -0.15575
C          C       0.55750   0.12260   0.80716  -0.15481
C          C       0.60083   0.88556   0.65935   0.04928
C          C       0.39946   0.11533   0.65784   0.04846
C          C       0.39617   0.88590   0.85129   0.04847
C          C       0.60333   0.11232   0.85357   0.04868
C          C       0.61214   0.92851   0.62361  -0.12651
C          C       0.38717   0.07287   0.62555  -0.12604
C          C       0.38494   0.92849   0.88511  -0.12689
C          C       0.61438   0.06926   0.88789  -0.12693
C          C       0.58055   0.96151   0.64623  -0.18338
C          C       0.41856   0.03933   0.64603  -0.18376
C          C       0.41741   0.96132   0.86807  -0.18284
C          C       0.58222   0.03659   0.86692  -0.18189
C          C       0.63779   0.85277   0.66666   0.07147
C          C       0.36358   0.14873   0.66909   0.07132
C          C       0.35961   0.85315   0.83665   0.07235
C          C       0.63994   0.14523   0.84346   0.07036
C          C       0.63095   0.81117   0.61115  -0.13652
C          C       0.37174   0.19096   0.61536  -0.13593
C          C       0.36622   0.81105   0.89480  -0.13656
C          C       0.63179   0.18735   0.89120  -0.13518
C          C       0.66448   0.77979   0.63830  -0.09827
C          C       0.33970   0.22290   0.64673  -0.09898
C          C       0.33399   0.77947   0.86032  -0.09928
C          C       0.66419   0.21927   0.85816  -0.09976
C          C       0.70601   0.78891   0.72319   0.04708
C          C       0.29826   0.21348   0.73275   0.04794
C          C       0.29403   0.78902   0.76561   0.04622
C          C       0.70614   0.21001   0.77649   0.04710
C          C       0.71388   0.83084   0.77177  -0.12763
C          C       0.28919   0.17114   0.78119  -0.12606
C          C       0.28642   0.83131   0.71307  -0.12671
C          C       0.71548   0.16765   0.73684  -0.12806
C          C       0.68038   0.86220   0.74397  -0.14408
C          C       0.32140   0.13930   0.75009  -0.14359
C          C       0.31863   0.86289   0.74841  -0.14533
C          C       0.68292   0.13580   0.76966  -0.14305
C          C       0.74027   0.75629   0.76809   0.06722
C          C       0.26461   0.24611   0.77501   0.06876
C          C       0.26036   0.75665   0.71982   0.06960
C          C       0.73965   0.24273   0.72747   0.06538
C          C       0.76686   0.31164   0.69655   0.20084
C          C       0.23086   0.68830   0.71129   0.20115
C          C       0.23603   0.31439   0.78867   0.19860
C          C       0.76867   0.68734   0.79057   0.19961
C          C       0.81296   0.30467   0.75153  -0.18005
C          C       0.18457   0.69633   0.75986  -0.18251
C          C       0.19095   0.30688   0.72636  -0.18277
C          C       0.81474   0.69402   0.73551  -0.18262
C          C       0.84732   0.33517   0.72324  -0.13240
C          C       0.14971   0.66625   0.73658  -0.12940
C          C       0.15541   0.33637   0.74681  -0.13054
C          C       0.84889   0.66310   0.76210  -0.13035
C          C       0.83711   0.37366   0.63984   0.05738
C          C       0.15959   0.62728   0.66363   0.05582
C          C       0.16335   0.37423   0.83027   0.05506
C          C       0.83862   0.62449   0.84447   0.05713
C          C       0.79128   0.37999   0.58140  -0.12844
C          C       0.20578   0.61979   0.61252  -0.12645
C          C       0.20827   0.38125   0.89466  -0.12691
C          C       0.79279   0.61846   0.90296  -0.12895
C          C       0.75657   0.34975   0.61050  -0.15447
C          C       0.24099   0.64939   0.63790  -0.15618
C          C       0.24423   0.35215   0.87278  -0.15569
C          C       0.75830   0.64900   0.87498  -0.15491
C          C       0.87313   0.40729   0.63302   0.05218
C          C       0.12327   0.59411   0.65695   0.04996
C          C       0.12602   0.40652   0.83455   0.05170
C          C       0.87434   0.59050   0.85011   0.05020
C          C       0.92003   0.39755   0.59526  -0.12913
C          C       0.07621   0.60441   0.62151  -0.12805
C          C       0.07897   0.39446   0.85943  -0.12751
C          C       0.92155   0.59987   0.88548  -0.12888
C          C       0.95633   0.42635   0.61795  -0.18477
C          C       0.04015   0.57481   0.63731  -0.18200
C          C       0.04191   0.42281   0.83849  -0.18183
C          C       0.95747   0.57079   0.86152  -0.18520
C          C       0.94555   0.46583   0.68210   0.09660
C          C       0.05132   0.53361   0.69147   0.09839
C          C       0.05206   0.46458   0.78893   0.09725
C          C       0.94602   0.53138   0.79819   0.09744
C          C       0.89830   0.47759   0.70941  -0.01073
C          C       0.09868   0.52191   0.71859  -0.01384
C          C       0.09924   0.47803   0.77267  -0.01205
C          C       0.89855   0.51986   0.77403  -0.01221
N          N       0.26713   0.71955   0.24475  -0.27773
N          N       0.73290   0.28387   0.24000  -0.27962
N          N       0.73168   0.71690   0.25481  -0.27985
N          N       0.26526   0.28043   0.25314  -0.27678
N          N       0.50223   0.97850   0.26297   0.01688
N          N       0.50208   0.02253   0.26252   0.01740
N          N       0.97484   0.50127   0.23944   0.01528
N          N       0.02338   0.50132   0.23751   0.01446
N          N       0.26734   0.71648   0.74440  -0.28001
N          N       0.73075   0.28289   0.73300  -0.27979
N          N       0.73248   0.71613   0.75439  -0.27792
N          N       0.27302   0.28632   0.76070  -0.28093
N          N       0.49956   0.97749   0.75978   0.01607
N          N       0.50015   0.02163   0.75737   0.01589
N          N       0.97446   0.49854   0.73929   0.01606
N          N       0.02299   0.49860   0.73714   0.01478

