data_crystal

_audit_creation_method 'AiiDA-DDEC plugin'

_cell_length_a        18.05105
_cell_length_b        18.29046
_cell_length_c         9.30196

_cell_angle_alpha     95.64910
_cell_angle_beta     89.30110
_cell_angle_gamma     89.81381

_symmetry_space_group_name_Hall 'P 1'
_symmetry_space_group_name_H-M  'P 1'

loop_
_symmetry_equiv_pos_as_xyz
 'x,y,z'

loop_
_atom_site_label
_atom_site_type_symbol
_atom_site_fract_x
_atom_site_fract_y
_atom_site_fract_z
_atom_site_charge
H          H       0.15126   0.76077   0.44163   0.11041
H          H       0.03920   0.68651   0.41291   0.10242
H          H       0.02352   0.35495   0.08762   0.10418
H          H       0.12614   0.26438   0.05737   0.12140
H          H       0.25338   0.40153   0.36410   0.11141
H          H       0.15357   0.49380   0.38375   0.10411
H          H       0.74206   0.90769   0.07224   0.11038
H          H       0.65447   0.01001   0.14868   0.11772
H          H       0.59230   0.74967   0.22946   0.12890
H          H       0.38445   0.01803   0.45601   0.11781
H          H       0.29460   0.92022   0.50670   0.11069
H          H       0.43566   0.75328   0.28682   0.12761
H          H       0.77708   0.78021   0.05328   0.06662
H          H       0.25905   0.78877   0.49514   0.06888
H          H       0.99401   0.67857   0.11929   0.10031
H          H       0.88162   0.75182   0.10193   0.10980
H          H       0.76841   0.61696   0.38757   0.12365
H          H       0.88327   0.54521   0.40932   0.10547
H          H       0.87910   0.48500   0.08977   0.10541
H          H       0.76942   0.40868   0.13350   0.12257
H          H       0.88570   0.31215   0.47004   0.11044
H          H       0.99575   0.38446   0.41746   0.09590
H          H       0.14959   0.53655   0.09579   0.10197
H          H       0.26279   0.61279   0.12147   0.12133
H          H       0.46678   0.29213   0.27140   0.11963
H          H       0.61602   0.28239   0.32286   0.12471
H          H       0.66222   0.02150   0.42319   0.12040
H          H       0.34424   0.33822   0.22798   0.06506
H          H       0.76099   0.11590   0.45906   0.10840
H          H       0.80980   0.22018   0.92404   0.06144
H          H       0.37379   0.03281   0.19889   0.12009
H          H       0.29105   0.13911   0.16026   0.11479
H          H       0.14880   0.75341   0.95190   0.10989
H          H       0.03752   0.67875   0.92182   0.10069
H          H       0.02500   0.35571   0.58341   0.10456
H          H       0.12977   0.26831   0.55188   0.12219
H          H       0.24943   0.40218   0.87572   0.11161
H          H       0.14852   0.49380   0.89239   0.10399
H          H       0.73619   0.90631   0.56417   0.10985
H          H       0.64713   0.00826   0.63898   0.11560
H          H       0.59151   0.74887   0.73757   0.12973
H          H       0.38179   0.01781   0.95534   0.11892
H          H       0.28987   0.92107   0.00172   0.11014
H          H       0.42991   0.75235   0.78401   0.12768
H          H       0.77501   0.78285   0.55619   0.06678
H          H       0.24564   0.80055   0.96981   0.06434
H          H       0.98832   0.66762   0.59844   0.09840
H          H       0.87585   0.74027   0.57582   0.10893
H          H       0.77079   0.62763   0.90823   0.12115
H          H       0.88456   0.55353   0.92767   0.10401
H          H       0.86827   0.49192   0.62628   0.10811
H          H       0.76053   0.41402   0.67289   0.12199
H          H       0.89522   0.28913   0.94012   0.11123
H          H       0.00120   0.36577   0.89181   0.10013
H          H       0.14339   0.53782   0.58403   0.10195
H          H       0.25638   0.61545   0.60933   0.11968
H          H       0.46513   0.29167   0.78316   0.12007
H          H       0.61660   0.27873   0.83542   0.12413
H          H       0.65501   0.01441   0.92048   0.11943
H          H       0.34387   0.33983   0.73874   0.06659
H          H       0.75661   0.10618   0.96307   0.10851
H          H       0.81122   0.23050   0.41682   0.06326
H          H       0.36967   0.03373   0.69612   0.12083
H          H       0.28800   0.14169   0.66261   0.11569
C          C       0.14772   0.44464   0.30936  -0.11861
C          C       0.67390   0.82319   0.15171   0.04831
C          C       0.68872   0.89596   0.12075  -0.12297
C          C       0.63994   0.95363   0.16199  -0.19098
C          C       0.57342   0.93618   0.22827   0.10109
C          C       0.55280   0.86216   0.24267  -0.01138
C          C       0.01576   0.48328   0.24281  -0.02286
C          C       0.60438   0.80591   0.20855  -0.13499
C          C       0.01674   0.55908   0.25271  -0.03106
C          C       0.46133   0.93944   0.34719   0.10150
C          C       0.08593   0.60333   0.25706   0.06245
C          C       0.39634   0.96062   0.42274  -0.18985
C          C       0.08167   0.43364   0.23120   0.06183
C          C       0.34632   0.90538   0.44949  -0.12195
C          C       0.15006   0.58489   0.17344  -0.12117
C          C       0.35838   0.83117   0.39507   0.04557
C          C       0.21405   0.62713   0.18836  -0.15749
C          C       0.42607   0.81051   0.32642  -0.13455
C          C       0.21744   0.69013   0.28837   0.19896
C          C       0.47908   0.86423   0.30704  -0.01318
C          C       0.15234   0.71098   0.36747  -0.17711
C          C       0.73679   0.77207   0.13986   0.08103
C          C       0.08867   0.66870   0.35133  -0.12348
C          C       0.29609   0.77999   0.40005   0.08041
C          C       0.07550   0.36679   0.14230  -0.12893
C          C       0.94710   0.60337   0.25879   0.06066
C          C       0.13226   0.31532   0.12693  -0.15808
C          C       0.94587   0.44055   0.25230   0.06131
C          C       0.19893   0.32766   0.20237   0.20027
C          C       0.94431   0.66437   0.17721  -0.12871
C          C       0.20497   0.39302   0.29603  -0.17712
C          C       0.88031   0.70554   0.16675  -0.17816
C          C       0.81439   0.68698   0.23724   0.19935
C          C       0.81781   0.62896   0.32611  -0.16156
C          C       0.88267   0.58869   0.33787  -0.11175
C          C       0.88121   0.44677   0.17194  -0.11718
C          C       0.81907   0.40459   0.19730  -0.15734
C          C       0.81932   0.35414   0.30263   0.19819
C          C       0.88420   0.34780   0.38320  -0.17734
C          C       0.94568   0.38941   0.35592  -0.12809
C          C       0.37291   0.22163   0.21568   0.04183
C          C       0.34826   0.14793   0.19249  -0.09161
C          C       0.39386   0.08884   0.21469  -0.18332
C          C       0.46570   0.10449   0.26306   0.10192
C          C       0.49303   0.17745   0.28021  -0.01489
C          C       0.44657   0.23592   0.25545  -0.15304
C          C       0.58315   0.09963   0.35328   0.10092
C          C       0.65134   0.07814   0.40501  -0.18427
C          C       0.70647   0.13132   0.42293  -0.12095
C          C       0.69498   0.20419   0.38875   0.04079
C          C       0.62435   0.22605   0.34739  -0.12645
C          C       0.56836   0.17405   0.33015  -0.01615
C          C       0.32096   0.28255   0.20945   0.06919
C          C       0.75870   0.25221   0.37959   0.07129
C          C       0.14433   0.44516   0.81605  -0.11625
C          C       0.67044   0.82239   0.65176   0.04677
C          C       0.68355   0.89462   0.61536  -0.11967
C          C       0.63403   0.95181   0.65492  -0.18814
C          C       0.56852   0.93408   0.72393   0.10122
C          C       0.54881   0.86023   0.74228  -0.01002
C          C       0.01192   0.48106   0.74787  -0.02594
C          C       0.60159   0.80468   0.71137  -0.13485
C          C       0.01297   0.55671   0.75344  -0.02608
C          C       0.45718   0.93811   0.84493   0.10459
C          C       0.08228   0.60063   0.75463   0.06564
C          C       0.39258   0.96033   0.92056  -0.19075
C          C       0.07951   0.43360   0.73457   0.06026
C          C       0.34158   0.90578   0.94498  -0.11973
C          C       0.14487   0.58460   0.66540  -0.12281
C          C       0.35261   0.83161   0.88886   0.04118
C          C       0.20857   0.62749   0.68023  -0.15517
C          C       0.42094   0.80966   0.82375  -0.12746
C          C       0.21299   0.68824   0.78548   0.19809
C          C       0.47483   0.86266   0.80629  -0.01636
C          C       0.14925   0.70625   0.87110  -0.17271
C          C       0.73446   0.77272   0.64118   0.07952
C          C       0.08590   0.66378   0.85462  -0.12471
C          C       0.28845   0.78317   0.88845   0.07651
C          C       0.07599   0.36827   0.64084  -0.12913
C          C       0.94429   0.60228   0.75905   0.06217
C          C       0.13372   0.31812   0.62542  -0.15857
C          C       0.94330   0.43678   0.76006   0.06095
C          C       0.19845   0.33008   0.70682   0.19994
C          C       0.94011   0.65810   0.66506  -0.12408
C          C       0.20238   0.39432   0.80394  -0.17816
C          C       0.87622   0.69932   0.65290  -0.17288
C          C       0.81260   0.68694   0.73649   0.19629
C          C       0.81810   0.63454   0.83739  -0.15888
C          C       0.88239   0.59337   0.84867  -0.11876
C          C       0.87438   0.44840   0.69670  -0.11532
C          C       0.81352   0.40468   0.72271  -0.15721
C          C       0.81889   0.34615   0.81028   0.19812
C          C       0.88835   0.33280   0.87002  -0.17943
C          C       0.94824   0.37684   0.84448  -0.12470
C          C       0.37108   0.22266   0.72191   0.04325
C          C       0.34536   0.14947   0.69497  -0.09220
C          C       0.39028   0.08949   0.71414  -0.18446
C          C       0.46231   0.10376   0.76296   0.10184
C          C       0.49048   0.17633   0.78530  -0.01518
C          C       0.44469   0.23568   0.76333  -0.15415
C          C       0.57925   0.09597   0.85382   0.10089
C          C       0.64641   0.07181   0.90523  -0.18368
C          C       0.70269   0.12349   0.92714  -0.12270
C          C       0.69299   0.19720   0.89639   0.04195
C          C       0.62295   0.22162   0.85645  -0.12598
C          C       0.56569   0.17117   0.83572  -0.01698
C          C       0.32017   0.28447   0.71742   0.06868
C          C       0.75788   0.24371   0.88782   0.07166
N          N       0.28353   0.73095   0.29330  -0.30680
N          N       0.25116   0.27085   0.18882  -0.29183
N          N       0.51814   0.98230   0.29496   0.01643
N          N       0.74693   0.72572   0.23440  -0.31373
N          N       0.75487   0.31294   0.31921  -0.30306
N          N       0.52060   0.05794   0.31006   0.02270
N          N       0.28003   0.72781   0.79208  -0.31627
N          N       0.25065   0.27343   0.69378  -0.28865
N          N       0.51335   0.98040   0.79016   0.01979
N          N       0.74500   0.72573   0.73429  -0.31504
N          N       0.75470   0.30508   0.82954  -0.30735
N          N       0.51666   0.05579   0.80662   0.02315

