data_crystal

_audit_creation_method 'AiiDA-DDEC plugin'

_cell_length_a        26.78949
_cell_length_b        26.81576
_cell_length_c         7.95546

_cell_angle_alpha     92.55884
_cell_angle_beta     88.23576
_cell_angle_gamma     120.68701

_symmetry_space_group_name_Hall 'P 1'
_symmetry_space_group_name_H-M  'P 1'

loop_
_symmetry_equiv_pos_as_xyz
 'x,y,z'

loop_
_atom_site_label
_atom_site_type_symbol
_atom_site_fract_x
_atom_site_fract_y
_atom_site_fract_z
_atom_site_charge
H          H       0.30852   0.83875   0.37649   0.13596
H          H       0.37857   0.94611   0.35908   0.12043
H          H       0.50315   0.91014   0.11816   0.10905
H          H       0.43422   0.80461   0.13364   0.13964
H          H       0.45989   0.11452   0.42039   0.11759
H          H       0.52507   0.22284   0.40466   0.11356
H          H       0.64737   0.19777   0.10854   0.11257
H          H       0.58129   0.09124   0.11016   0.10948
H          H       0.15453   0.47325   0.39340   0.13362
H          H       0.04813   0.43704   0.35760   0.11801
H          H       0.09284   0.58065   0.04331   0.10981
H          H       0.19738   0.61696   0.08124   0.13240
H          H       0.88352   0.34674   0.36344   0.11973
H          H       0.77561   0.30417   0.33855   0.11452
H          H       0.80559   0.46501   0.15358   0.11331
H          H       0.91255   0.50615   0.16631   0.11026
H          H       0.52516   0.68788   0.37029   0.13498
H          H       0.56301   0.61921   0.34229   0.11711
H          H       0.41397   0.50136   0.04720   0.11054
H          H       0.37546   0.56814   0.07931   0.13595
H          H       0.65948   0.55110   0.33406   0.11904
H          H       0.70093   0.48528   0.31944   0.11464
H          H       0.53327   0.34092   0.19367   0.11237
H          H       0.49216   0.40622   0.19939   0.10769
H          H       0.31672   0.83822   0.94676   0.13210
H          H       0.38461   0.94479   0.91448   0.11732
H          H       0.48574   0.90707   0.55817   0.10622
H          H       0.42024   0.80167   0.59426   0.13248
H          H       0.45396   0.11425   0.89171   0.12047
H          H       0.51909   0.22162   0.86177   0.11333
H          H       0.65220   0.19329   0.65090   0.11234
H          H       0.58676   0.08665   0.67073   0.10926
H          H       0.16014   0.46734   0.87942   0.13464
H          H       0.05352   0.42920   0.84963   0.11732
H          H       0.09322   0.57922   0.57274   0.11146
H          H       0.19828   0.61880   0.60925   0.13537
H          H       0.88366   0.34330   0.88438   0.11906
H          H       0.77626   0.30221   0.86171   0.11555
H          H       0.80836   0.45877   0.63839   0.11500
H          H       0.91461   0.49849   0.65234   0.11123
H          H       0.53018   0.69150   0.90411   0.13413
H          H       0.56960   0.62442   0.86745   0.11644
H          H       0.42705   0.51297   0.54302   0.10852
H          H       0.38638   0.57730   0.58511   0.13494
H          H       0.66325   0.54878   0.86147   0.11832
H          H       0.70274   0.48160   0.83868   0.11253
H          H       0.53870   0.34473   0.65560   0.11218
H          H       0.50024   0.41212   0.66614   0.10831
H          H       0.49193   0.48023   0.08300   0.07327
H          H       0.52818   0.00765   0.15991   0.06535
H          H       0.98988   0.50208   0.07331   0.07107
H          H       0.50460   0.49246   0.57437   0.06826
H          H       0.50746   0.00619   0.59719   0.06583
H          H       0.99328   0.49860   0.58427   0.07095
C          C       0.28496   0.61492   0.26370   0.58095
C          C       0.36756   0.81614   0.25647   0.25730
C          C       0.35135   0.85555   0.31963  -0.19093
C          C       0.39006   0.91470   0.31018  -0.08575
C          C       0.44558   0.93535   0.23805   0.03802
C          C       0.46061   0.89485   0.17593  -0.10249
C          C       0.42212   0.83522   0.18347  -0.20072
C          C       0.48724   0.99710   0.22449   0.06553
C          C       0.51625   0.09547   0.26982   0.20540
C          C       0.50077   0.13344   0.35105  -0.14951
C          C       0.53681   0.19325   0.34270  -0.09797
C          C       0.59022   0.21652   0.25725  -0.00123
C          C       0.60623   0.17898   0.17658  -0.09213
C          C       0.56930   0.11935   0.18008  -0.17266
C          C       0.62953   0.27974   0.25219   0.37840
C          C       0.38166   0.66783   0.25271   0.58121
C          C       0.18100   0.54750   0.24343   0.25353
C          C       0.13978   0.49621   0.31895  -0.19069
C          C       0.08128   0.47631   0.29854  -0.09095
C          C       0.06358   0.50702   0.20147   0.03605
C          C       0.10595   0.55758   0.12349  -0.09975
C          C       0.16497   0.57846   0.14416  -0.19693
C          C       0.00193   0.48567   0.17952   0.07692
C          C       0.90477   0.42807   0.26171   0.21266
C          C       0.86568   0.37140   0.31352  -0.15759
C          C       0.80626   0.34812   0.30084  -0.09398
C          C       0.78434   0.38199   0.24370  -0.00846
C          C       0.82318   0.43917   0.19624  -0.08840
C          C       0.88274   0.46186   0.20321  -0.18019
C          C       0.72122   0.35789   0.24047   0.37760
C          C       0.32956   0.71167   0.26371   0.58037
C          C       0.44856   0.63144   0.22768   0.25704
C          C       0.50157   0.64671   0.30055  -0.19232
C          C       0.52236   0.60884   0.28483  -0.08451
C          C       0.49072   0.55567   0.19455   0.03880
C          C       0.43805   0.54181   0.12049  -0.10130
C          C       0.41610   0.57915   0.13714  -0.19525
C          C       0.51260   0.51578   0.17802   0.07236
C          C       0.57409   0.48357   0.26110   0.21560
C          C       0.63274   0.50527   0.29969  -0.15812
C          C       0.65555   0.46898   0.29206  -0.09159
C          C       0.61967   0.40955   0.25250  -0.00629
C          C       0.56060   0.38727   0.21995  -0.08579
C          C       0.53806   0.42381   0.22278  -0.18260
C          C       0.64345   0.37078   0.25019   0.37671
C          C       0.28874   0.61438   0.77331   0.57991
C          C       0.36491   0.81430   0.77372   0.25628
C          C       0.35431   0.85410   0.86363  -0.19275
C          C       0.39188   0.91314   0.84519  -0.08715
C          C       0.43980   0.93310   0.73465   0.03738
C          C       0.44926   0.89212   0.64571  -0.10205
C          C       0.41239   0.83260   0.66477  -0.19723
C          C       0.47822   0.99498   0.70730   0.07876
C          C       0.51499   0.09320   0.77864   0.21374
C          C       0.49683   0.13212   0.83432  -0.15684
C          C       0.53312   0.19161   0.81862  -0.09417
C          C       0.58967   0.21410   0.75341  -0.00770
C          C       0.60830   0.17546   0.70035  -0.08783
C          C       0.57144   0.11590   0.71088  -0.18130
C          C       0.62984   0.27727   0.74619   0.37764
C          C       0.38550   0.67025   0.77551   0.58177
C          C       0.18492   0.54518   0.74823   0.25537
C          C       0.14453   0.49142   0.81393  -0.19173
C          C       0.08554   0.47035   0.79692  -0.08835
C          C       0.06615   0.50206   0.71139   0.03918
C          C       0.10768   0.55514   0.64345  -0.10028
C          C       0.16711   0.57762   0.66241  -0.19621
C          C       0.00436   0.48055   0.68866   0.07026
C          C       0.90628   0.42235   0.76481   0.20954
C          C       0.86644   0.36729   0.82639  -0.15743
C          C       0.80700   0.34473   0.81425  -0.09527
C          C       0.78560   0.37757   0.74607  -0.00594
C          C       0.82522   0.43328   0.68884  -0.09252
C          C       0.88467   0.45519   0.69647  -0.17665
C          C       0.72246   0.35448   0.74149   0.37746
C          C       0.33051   0.71103   0.78483   0.58008
C          C       0.45562   0.63741   0.75070   0.25620
C          C       0.50780   0.65165   0.82772  -0.19422
C          C       0.52963   0.61459   0.80672  -0.08609
C          C       0.50028   0.56337   0.70616   0.03821
C          C       0.44910   0.55130   0.62597  -0.09896
C          C       0.42592   0.58749   0.64835  -0.19743
C          C       0.52224   0.52346   0.68224   0.07608
C          C       0.57992   0.48571   0.76100   0.21475
C          C       0.63691   0.50448   0.81222  -0.15959
C          C       0.65869   0.46724   0.80033  -0.09191
C          C       0.62337   0.40929   0.74377  -0.00788
C          C       0.56594   0.38986   0.69687  -0.08772
C          C       0.54472   0.42764   0.70301  -0.18112
C          C       0.64587   0.36926   0.74053   0.37798
N          N       0.27867   0.66111   0.26923  -0.52473
N          N       0.47621   0.03601   0.28521  -0.29874
N          N       0.60553   0.31334   0.26031  -0.41620
N          N       0.33521   0.61484   0.25767  -0.52486
N          N       0.96388   0.44802   0.27991  -0.29655
N          N       0.68692   0.29961   0.24179  -0.41670
N          N       0.38227   0.71833   0.25643  -0.52316
N          N       0.55455   0.52301   0.27124  -0.29657
N          N       0.70161   0.39522   0.23996  -0.41325
N          N       0.28064   0.65943   0.78208  -0.52439
N          N       0.47655   0.03409   0.80417  -0.29045
N          N       0.60692   0.31183   0.74386  -0.41659
N          N       0.34002   0.61635   0.77168  -0.52507
N          N       0.96541   0.44158   0.78438  -0.29592
N          N       0.68721   0.29640   0.74491  -0.41685
N          N       0.38412   0.71983   0.78226  -0.52447
N          N       0.56086   0.52566   0.78051  -0.29337
N          N       0.70404   0.39276   0.73800  -0.41426
O          O       0.43569   0.67607   0.24240  -0.22279
O          O       0.32245   0.75805   0.26660  -0.21998
O          O       0.23832   0.56069   0.26553  -0.21843
O          O       0.44038   0.68030   0.77472  -0.22199
O          O       0.32106   0.75601   0.79237  -0.21993
O          O       0.24292   0.55950   0.76644  -0.22084

