data_crystal

_audit_creation_method 'AiiDA-DDEC plugin'

_cell_length_a        31.85554
_cell_length_b        31.97374
_cell_length_c        10.86820

_cell_angle_alpha     89.88871
_cell_angle_beta     93.20774
_cell_angle_gamma     120.16876

_symmetry_space_group_name_Hall 'P 1'
_symmetry_space_group_name_H-M  'P 1'

loop_
_symmetry_equiv_pos_as_xyz
 'x,y,z'

loop_
_atom_site_label
_atom_site_type_symbol
_atom_site_fract_x
_atom_site_fract_y
_atom_site_fract_z
_atom_site_charge
P          P       0.67212   0.33272   0.41959   0.15880
P          P       0.33527   0.66828   0.43861   0.16226
P          P       0.66793   0.33736   0.92111   0.15847
P          P       0.33701   0.66859   0.93517   0.16165
H          H       0.67962   0.27215   0.21624   0.10955
H          H       0.71913   0.38901   0.19551   0.09234
H          H       0.60557   0.32368   0.19420   0.09836
H          H       0.32047   0.71893   0.21809   0.10064
H          H       0.27335   0.59365   0.24565   0.10378
H          H       0.39011   0.67171   0.21322   0.09313
H          H       0.62324   0.18513   0.15214   0.11768
H          H       0.80529   0.42720   0.13529   0.11731
H          H       0.57111   0.37576   0.12971   0.11905
H          H       0.36854   0.80459   0.15489   0.11629
H          H       0.18585   0.55752   0.17413   0.11772
H          H       0.42387   0.62008   0.15030   0.11521
H          H       0.51998   0.17780   0.40088   0.11167
H          H       0.84054   0.36582   0.44705   0.11011
H          H       0.65263   0.47443   0.43288   0.11017
H          H       0.47723   0.83301   0.44528   0.10891
H          H       0.17368   0.65619   0.41420   0.10588
H          H       0.35058   0.52283   0.43683   0.10695
H          H       0.57611   0.26348   0.46772   0.11434
H          H       0.75494   0.32675   0.50632   0.10917
H          H       0.68738   0.42350   0.49581   0.10914
H          H       0.42882   0.74861   0.51190   0.11125
H          H       0.26016   0.69104   0.49148   0.11230
H          H       0.31910   0.57508   0.50329   0.10838
H          H       0.50911   0.10480   0.31462   0.07229
H          H       0.90469   0.42596   0.33526   0.06707
H          H       0.59417   0.48450   0.33402   0.06796
H          H       0.48935   0.89575   0.32007   0.06419
H          H       0.10677   0.60480   0.29106   0.06341
H          H       0.40006   0.50650   0.32270   0.06716
H          H       0.50286   0.96248   0.36885   0.10670
H          H       0.04029   0.55791   0.33038   0.11243
H          H       0.45394   0.48818   0.36578   0.11130
H          H       0.54759   0.05092   0.35103   0.11921
H          H       0.95097   0.51078   0.31635   0.12091
H          H       0.50154   0.44808   0.34567   0.12032
H          H       0.48370   0.03662   0.98319   0.11429
H          H       0.95222   0.43682   0.98864   0.10725
H          H       0.55672   0.52288   0.00928   0.11430
H          H       0.43928   0.94689  -0.00005   0.12507
H          H       0.04307   0.48638  -0.00181   0.12404
H          H       0.50827   0.56349   0.03055   0.12462
H          H       0.67187   0.28246   0.69961   0.09634
H          H       0.72207   0.40107   0.70397   0.09976
H          H       0.59861   0.32660   0.70503   0.10673
H          H       0.32461   0.71860   0.70941   0.09706
H          H       0.27362   0.59308   0.73011   0.10704
H          H       0.40635   0.68226   0.73337   0.10253
H          H       0.62305   0.19425   0.64149   0.11848
H          H       0.80675   0.42901   0.64344   0.11768
H          H       0.56423   0.38002   0.64482   0.11601
H          H       0.37528   0.80315   0.64110   0.11785
H          H       0.18575   0.56005   0.66333   0.11638
H          H       0.43843   0.62939   0.66888   0.11920
H          H       0.52811   0.17240   0.92975   0.11023
H          H       0.82438   0.34555   0.92914   0.11173
H          H       0.65393   0.48266   0.93243   0.11303
H          H       0.47917   0.83145   0.94622   0.10802
H          H       0.17993   0.66108   0.91202   0.10700
H          H       0.35141   0.52383   0.92722   0.10720
H          H       0.57671   0.25946   0.99120   0.10938
H          H       0.74003   0.31697   0.98981   0.11010
H          H       0.68899   0.43050   0.99290   0.11028
H          H       0.42670   0.74789   0.01651   0.10878
H          H       0.26616   0.69223   0.98207   0.11003
H          H       0.32041   0.57690   0.99579   0.11281
H          H       0.51929   0.10552   0.83212   0.06828
H          H       0.89360   0.40624   0.84418   0.06982
H          H       0.58820   0.48749   0.83878   0.07339
H          H       0.49576   0.89210   0.82271   0.06209
H          H       0.10820   0.60569   0.80547   0.06526
H          H       0.39873   0.50728   0.81810   0.06453
H          H       0.51453   0.96069   0.87593   0.11217
H          H       0.03804   0.55081   0.85853   0.11294
H          H       0.44766   0.48505   0.86775   0.11372
H          H       0.56016   0.04946   0.86825   0.12278
H          H       0.94904   0.49897   0.84933   0.12024
H          H       0.49486   0.44308   0.85309   0.12295
H          H       0.49707   0.04206   0.50259   0.10958
H          H       0.95238   0.43608   0.50339   0.11119
H          H       0.54308   0.50556   0.50222   0.11047
H          H       0.45069   0.95231   0.51093   0.11929
H          H       0.04264   0.48891   0.51141   0.12497
H          H       0.49760   0.55021   0.51807   0.11951
C          C       0.63181   0.27324   0.34716  -0.04127
C          C       0.73125   0.35515   0.35460  -0.04576
C          C       0.64910   0.36999   0.34927  -0.04062
C          C       0.37129   0.72748   0.36908  -0.04247
C          C       0.27320   0.64527   0.37157  -0.04301
C          C       0.35372   0.62846   0.36598  -0.04138
C          C       0.64468   0.25128   0.25637  -0.11301
C          C       0.74554   0.38322   0.24905  -0.10948
C          C       0.61640   0.35717   0.24517  -0.10949
C          C       0.35489   0.74386   0.26738  -0.11138
C          C       0.25139   0.60722   0.28265  -0.10904
C          C       0.38227   0.63958   0.26368  -0.11144
C          C       0.61340   0.20303   0.22015  -0.10085
C          C       0.79319   0.40416   0.21430  -0.10507
C          C       0.59689   0.38622   0.20904  -0.10396
C          C       0.38164   0.79160   0.23153  -0.10402
C          C       0.20292   0.58737   0.24142  -0.10042
C          C       0.40103   0.61063   0.22782  -0.10454
C          C       0.56841   0.17603   0.27290   0.05047
C          C       0.82774   0.39774   0.28526   0.05658
C          C       0.60934   0.42882   0.27703   0.05374
C          C       0.42611   0.82445   0.29485   0.05713
C          C       0.17489   0.60595   0.28633   0.05323
C          C       0.39120   0.56876   0.29199   0.05541
C          C       0.55483   0.19862   0.36032  -0.12490
C          C       0.81335   0.36921   0.38975  -0.12089
C          C       0.64328   0.44210   0.37855  -0.12165
C          C       0.44336   0.80768   0.39397  -0.12845
C          C       0.19632   0.64346   0.37670  -0.12854
C          C       0.35952   0.55566   0.38815  -0.12850
C          C       0.58617   0.24659   0.39732  -0.10897
C          C       0.76558   0.34771   0.42339  -0.10169
C          C       0.66295   0.41345   0.41378  -0.10586
C          C       0.41612   0.76021   0.43124  -0.10598
C          C       0.24462   0.66275   0.41972  -0.10537
C          C       0.34172   0.58515   0.42532  -0.10680
C          C       0.53743   0.12401   0.24945   0.07209
C          C       0.87891   0.42236   0.25873   0.07497
C          C       0.58643   0.45860   0.25785   0.07436
C          C       0.45428   0.87557   0.26651   0.06723
C          C       0.12378   0.58625   0.24859   0.06743
C          C       0.41446   0.54000   0.27074   0.06814
C          C       0.50010   0.97792   0.28186  -0.16619
C          C       0.02149   0.53201   0.25407  -0.16571
C          C       0.47626   0.49639   0.28715  -0.16427
C          C       0.52447   0.02793   0.27352  -0.17697
C          C       0.97130   0.50482   0.24824  -0.17722
C          C       0.50415   0.47420   0.27734  -0.17917
C          C       0.46859   0.94791   0.18328   0.18515
C          C       0.04853   0.52562   0.16520   0.18788
C          C       0.47658   0.52863   0.19753   0.18733
C          C       0.51811   0.04987   0.16716   0.19860
C          C       0.94576   0.46932   0.15368   0.19821
C          C       0.53336   0.48239   0.17670   0.19763
C          C       0.46288   0.97006   0.07662  -0.14969
C          C       0.02266   0.49143   0.06792  -0.14680
C          C       0.50688   0.53782   0.09886  -0.14970
C          C       0.48777   0.02023   0.06722  -0.17392
C          C       0.97213   0.46415   0.06161  -0.16782
C          C       0.53388   0.51473   0.08694  -0.17202
C          C       0.62844   0.27687   0.85133  -0.04526
C          C       0.72564   0.35726   0.85151  -0.04251
C          C       0.64604   0.37535   0.85288  -0.04539
C          C       0.37243   0.72771   0.86735  -0.04496
C          C       0.27579   0.64481   0.86143  -0.04405
C          C       0.36006   0.63257   0.86688  -0.04571
C          C       0.64061   0.25833   0.75052  -0.10700
C          C       0.74425   0.38844   0.75241  -0.11344
C          C       0.61146   0.36122   0.75265  -0.10783
C          C       0.35844   0.74364   0.76070  -0.10881
C          C       0.25291   0.60781   0.76972  -0.11075
C          C       0.39345   0.64716   0.77416  -0.10946
C          C       0.61326   0.20934   0.71679  -0.10365
C          C       0.79136   0.40409   0.71805  -0.10442
C          C       0.59247   0.39057   0.71850  -0.10279
C          C       0.38682   0.79091   0.72259  -0.10513
C          C       0.20413   0.58965   0.73134  -0.10146
C          C       0.41181   0.61794   0.73838  -0.10300
C          C       0.57310   0.17803   0.78328   0.05374
C          C       0.82082   0.38928   0.78348   0.05162
C          C       0.60739   0.43400   0.78486   0.05248
C          C       0.43068   0.82328   0.78954   0.05849
C          C       0.17685   0.60823   0.78296   0.05398
C          C       0.39656   0.57322   0.79423   0.05639
C          C       0.55891   0.19711   0.87808  -0.12420
C          C       0.80134   0.35672   0.87917  -0.12080
C          C       0.64346   0.44924   0.88115  -0.12467
C          C       0.44545   0.80661   0.89373  -0.12809
C          C       0.20055   0.64657   0.87090  -0.12848
C          C       0.36200   0.55803   0.88344  -0.12914
C          C       0.58639   0.24596   0.91231  -0.10454
C          C       0.75442   0.34084   0.91274  -0.10298
C          C       0.66259   0.42003   0.91478  -0.10420
C          C       0.41638   0.75984   0.93276  -0.10453
C          C       0.24885   0.66405   0.91024  -0.10839
C          C       0.34444   0.58752   0.92055  -0.10747
C          C       0.54692   0.12542   0.76571   0.07703
C          C       0.87281   0.41068   0.76606   0.07704
C          C       0.58166   0.46051   0.76635   0.07149
C          C       0.46153   0.87441   0.76520   0.06510
C          C       0.12443   0.58749   0.75723   0.06614
C          C       0.41550   0.54144   0.76942   0.06284
C          C       0.51234   0.97793   0.79132  -0.16549
C          C       0.01982   0.52755   0.77743  -0.16725
C          C       0.46735   0.48922   0.78571  -0.16576
C          C       0.53749   0.02822   0.78801  -0.17700
C          C       0.96961   0.49757   0.77425  -0.17311
C          C       0.49387   0.46571   0.77910  -0.17931
C          C       0.48073   0.94961   0.69065   0.18415
C          C       0.04726   0.52518   0.68279   0.18871
C          C       0.46910   0.52064   0.69160   0.18324
C          C       0.53215   0.05218   0.68440   0.20169
C          C       0.94447   0.46377   0.67583   0.19878
C          C       0.52167   0.47203   0.67729   0.20062
C          C       0.47612   0.97386   0.58713  -0.14973
C          C       0.02177   0.49167   0.58370  -0.15181
C          C       0.49600   0.52543   0.58890  -0.14948
C          C       0.50204   0.02404   0.58228  -0.17300
C          C       0.97144   0.46218   0.57934  -0.17652
C          C       0.52105   0.50055   0.57968  -0.17069
N          N       0.54317   0.10049   0.16195  -0.28485
N          N       0.89509   0.43998   0.15373  -0.28813
N          N       0.55856   0.45673   0.16471  -0.28625
N          N       0.44022   0.89718   0.18874  -0.29152
N          N       0.09945   0.54853   0.17618  -0.29314
N          N       0.45111   0.55406   0.20264  -0.29490
N          N       0.55525   0.10285   0.68124  -0.27907
N          N       0.89364   0.43441   0.67099  -0.28332
N          N       0.55096   0.45119   0.67414  -0.28116
N          N       0.45026   0.89900   0.68976  -0.29343
N          N       0.09830   0.54946   0.68741  -0.29410
N          N       0.44971   0.55140   0.69664  -0.29253

