data_crystal

_audit_creation_method 'AiiDA-DDEC plugin'

_cell_length_a        39.85218
_cell_length_b        39.89395
_cell_length_c         9.84607

_cell_angle_alpha     90.04132
_cell_angle_beta     90.34828
_cell_angle_gamma     120.66088

_symmetry_space_group_name_Hall 'P 1'
_symmetry_space_group_name_H-M  'P 1'

loop_
_symmetry_equiv_pos_as_xyz
 'x,y,z'

loop_
_atom_site_label
_atom_site_type_symbol
_atom_site_fract_x
_atom_site_fract_y
_atom_site_fract_z
_atom_site_charge
P          P       0.66507   0.33660   0.45121   0.18286
P          P       0.33491   0.66420   0.45676   0.18723
P          P       0.66519   0.33224   0.96332   0.19320
P          P       0.33327   0.66478   0.95036   0.18578
H          H       0.60947   0.32345   0.22553   0.09521
H          H       0.67256   0.29199   0.22378   0.09060
H          H       0.70812   0.37838   0.21005   0.08861
H          H       0.39611   0.67673   0.26726   0.10101
H          H       0.32116   0.71143   0.24847   0.10097
H          H       0.28592   0.61150   0.24060   0.09702
H          H       0.57986   0.36319   0.15663   0.11853
H          H       0.63487   0.22048   0.16961   0.11803
H          H       0.77809   0.40906   0.15027   0.11590
H          H       0.42623   0.63653   0.21479   0.11514
H          H       0.36032   0.78200   0.19350   0.11793
H          H       0.21581   0.58452   0.17927   0.11638
H          H       0.66779   0.45930   0.38783   0.10593
H          H       0.54950   0.20477   0.46324   0.10132
H          H       0.79437   0.34685   0.47519   0.10623
H          H       0.32984   0.53804   0.40633   0.10502
H          H       0.45636   0.79243   0.42821   0.10403
H          H       0.21005   0.66322   0.46285   0.10755
H          H       0.69871   0.42210   0.44817   0.11339
H          H       0.58875   0.27513   0.52962   0.11226
H          H       0.72681   0.32134   0.54794   0.11021
H          H       0.30093   0.57718   0.46508   0.11361
H          H       0.41769   0.72150   0.48349   0.11205
H          H       0.27906   0.68792   0.53018   0.11042
H          H       0.60510   0.45341   0.35102   0.06890
H          H       0.54047   0.15080   0.35261   0.06248
H          H       0.84660   0.38490   0.34544   0.05893
H          H       0.39053   0.53649   0.35425   0.06960
H          H       0.46155   0.84744   0.36000   0.06418
H          H       0.15218   0.61585   0.35249   0.06399
H          H       0.60398   0.50327   0.24221   0.10465
H          H       0.50155   0.10078   0.27575   0.10632
H          H       0.89721   0.39688   0.26495   0.10338
H          H       0.40009   0.49805   0.23651   0.10425
H          H       0.50624   0.90297   0.25908   0.10634
H          H       0.09768   0.59636   0.29240   0.10522
H          H       0.56982   0.53976   0.25101   0.10455
H          H       0.46542   0.02900   0.28098   0.10419
H          H       0.96748   0.42765   0.25618   0.10227
H          H       0.43442   0.46171   0.22902   0.10248
H          H       0.54196   0.97461   0.25628   0.10388
H          H       0.02756   0.56098   0.27394   0.10483
H          H       0.46260   0.43590   0.13817   0.10368
H          H       0.56869   0.02887   0.15818   0.10412
H          H       0.97719   0.53687   0.15775   0.10401
H          H       0.54357   0.56923   0.18055   0.10200
H          H       0.43523   0.97334   0.17330   0.10376
H          H       0.02856   0.45851   0.14251   0.10828
H          H       0.49671   0.39881   0.13602   0.11915
H          H       0.60580   0.10094   0.16349   0.12019
H          H       0.90577   0.50587   0.17312   0.11764
H          H       0.50896   0.60545   0.18465   0.11712
H          H       0.39839   0.90045   0.17995   0.11952
H          H       0.10056   0.49474   0.16799   0.11718
H          H       0.60561   0.32031   0.75815   0.09440
H          H       0.67937   0.28124   0.76657   0.10529
H          H       0.70841   0.38208   0.72789   0.09498
H          H       0.39382   0.67785   0.74961   0.09718
H          H       0.31879   0.71669   0.75824   0.10254
H          H       0.28430   0.60842   0.73402   0.09839
H          H       0.57617   0.36058   0.69596   0.11769
H          H       0.63513   0.21128   0.69987   0.11569
H          H       0.77917   0.41453   0.66663   0.11825
H          H       0.42480   0.63922   0.69197   0.11783
H          H       0.36019   0.78789   0.71291   0.11535
H          H       0.21417   0.57934   0.67313   0.11926
H          H       0.66562   0.45611   0.92613   0.10465
H          H       0.54369   0.20646   0.93612   0.10398
H          H       0.79881   0.35693   0.00031   0.10645
H          H       0.33636   0.54265   0.91727   0.10460
H          H       0.45393   0.79282   0.94545   0.10686
H          H       0.20772   0.65951   0.94947   0.10575
H          H       0.69384   0.41608   0.99321   0.11311
H          H       0.58608   0.27637   0.00314   0.11349
H          H       0.72844   0.32439   0.05918   0.10824
H          H       0.30730   0.58224   0.98457   0.11286
H          H       0.41401   0.72250   0.99046   0.11076
H          H       0.27825   0.68865   0.00624   0.11182
H          H       0.61596   0.46294   0.83580   0.05882
H          H       0.53326   0.15020   0.83343   0.06366
H          H       0.85148   0.40169   0.88555   0.06912
H          H       0.38500   0.53516   0.81671   0.06112
H          H       0.46211   0.85145   0.85120   0.06467
H          H       0.14907   0.60462   0.88038   0.06334
H          H       0.59792   0.49828   0.77453   0.10535
H          H       0.49713   0.09795   0.75729   0.10638
H          H       0.89691   0.39879   0.74548   0.10974
H          H       0.39821   0.49859   0.72845   0.10226
H          H       0.50193   0.90110   0.75380   0.10427
H          H       0.09801   0.60074   0.78158   0.10783
H          H       0.56539   0.53530   0.75142   0.10486
H          H       0.46165   0.02737   0.76454   0.10525
H          H       0.96782   0.43414   0.74318   0.10187
H          H       0.42940   0.45969   0.72461   0.10100
H          H       0.53943   0.97123   0.75649   0.10354
H          H       0.02694   0.56731   0.77007   0.10325
H          H       0.45610   0.42872   0.66966   0.10295
H          H       0.56738   0.02716   0.67457   0.10530
H          H       0.97236   0.54198   0.66141   0.10545
H          H       0.54033   0.56477   0.67039   0.10206
H          H       0.43539   0.97485   0.67196   0.10346
H          H       0.02151   0.46027   0.65506   0.10452
H          H       0.48930   0.39170   0.70514   0.11589
H          H       0.60412   0.09907   0.68007   0.11981
H          H       0.89833   0.50528   0.66581   0.11858
H          H       0.50871   0.60304   0.68920   0.11717
H          H       0.39580   0.90215   0.68393   0.12089
H          H       0.09411   0.49475   0.66460   0.11897
C          C       0.65358   0.36818   0.35200  -0.04402
C          C       0.63307   0.28791   0.37990  -0.04591
C          C       0.71311   0.34960   0.38579  -0.04301
C          C       0.34752   0.63081   0.37547  -0.04596
C          C       0.36612   0.71157   0.37388  -0.04577
C          C       0.28623   0.64971   0.39383  -0.04479
C          C       0.62184   0.35321   0.26170  -0.12044
C          C       0.64551   0.27263   0.27638  -0.11041
C          C       0.72785   0.37287   0.26994  -0.11951
C          C       0.38188   0.64641   0.29846  -0.11988
C          C       0.35096   0.72883   0.28738  -0.11242
C          C       0.26875   0.62180   0.29101  -0.11465
C          C       0.60581   0.37546   0.22052  -0.09828
C          C       0.62459   0.23308   0.24432  -0.09967
C          C       0.76690   0.38960   0.23585  -0.09802
C          C       0.39878   0.62415   0.26893  -0.09788
C          C       0.37281   0.76852   0.25614  -0.10042
C          C       0.23008   0.60725   0.25479  -0.10127
C          C       0.62070   0.41314   0.27236   0.05503
C          C       0.58955   0.20819   0.31225   0.05817
C          C       0.79158   0.38106   0.31154   0.05440
C          C       0.38164   0.58534   0.31222   0.05652
C          C       0.41080   0.79185   0.30945   0.05813
C          C       0.20805   0.62072   0.32124   0.05679
C          C       0.65510   0.42963   0.35073  -0.13703
C          C       0.57611   0.22422   0.40925  -0.12752
C          C       0.77553   0.35412   0.41821  -0.12865
C          C       0.34513   0.56857   0.37704  -0.13425
C          C       0.42700   0.77400   0.38714  -0.13349
C          C       0.22658   0.65156   0.41495  -0.12885
C          C       0.67197   0.40793   0.38738  -0.10598
C          C       0.59780   0.26326   0.44720  -0.10487
C          C       0.73711   0.33917   0.45735  -0.10289
C          C       0.32844   0.59096   0.41025  -0.11081
C          C       0.40500   0.73460   0.42013  -0.10801
C          C       0.26523   0.66551   0.45274  -0.10364
C          C       0.59898   0.43359   0.26558   0.06835
C          C       0.56747   0.16604   0.29324   0.06678
C          C       0.83352   0.40015   0.29374   0.06967
C          C       0.40201   0.56367   0.29680   0.06149
C          C       0.43487   0.83429   0.29770   0.06638
C          C       0.16596   0.60112   0.30346   0.06504
C          C       0.55264   0.44796   0.19029   0.20687
C          C       0.55617   0.10606   0.21774   0.20296
C          C       0.89539   0.44887   0.22425   0.20315
C          C       0.45216   0.55516   0.21837   0.20431
C          C       0.44906   0.89601   0.22237   0.20333
C          C       0.10512   0.54838   0.23365   0.20316
C          C       0.57263   0.48796   0.22346  -0.18274
C          C       0.51621   0.08496   0.24979  -0.17628
C          C       0.91445   0.42774   0.24298  -0.17762
C          C       0.43168   0.51408   0.22611  -0.17824
C          C       0.49004   0.91784   0.24267  -0.17811
C          C       0.08314   0.56601   0.26231  -0.17216
C          C       0.55319   0.50871   0.22887  -0.12675
C          C       0.49573   0.04446   0.25009  -0.12485
C          C       0.95474   0.44548   0.23574  -0.12368
C          C       0.45101   0.49331   0.21830  -0.12528
C          C       0.51051   0.95859   0.23776  -0.12701
C          C       0.04292   0.54562   0.25177  -0.12516
C          C       0.51277   0.49055   0.20240   0.05533
C          C       0.51359   0.02287   0.21551   0.05895
C          C       0.97881   0.48552   0.20936   0.06143
C          C       0.49189   0.51233   0.20475   0.05913
C          C       0.49126   0.97960   0.21533   0.05689
C          C       0.02173   0.50588   0.21508   0.06196
C          C       0.49306   0.45053   0.16856  -0.12737
C          C       0.55386   0.04439   0.18591  -0.13179
C          C       0.95959   0.50628   0.18476  -0.13126
C          C       0.51202   0.55317   0.19178  -0.13046
C          C       0.45053   0.95764   0.19185  -0.12924
C          C       0.04366   0.48838   0.18069  -0.13262
C          C       0.51235   0.42969   0.16225  -0.15826
C          C       0.57471   0.08501   0.18595  -0.15079
C          C       0.91921   0.48857   0.19158  -0.14829
C          C       0.49260   0.57398   0.19588  -0.15237
C          C       0.42991   0.91688   0.19491  -0.15089
C          C       0.08422   0.50905   0.19184  -0.14960
C          C       0.65041   0.36430   0.88438  -0.04453
C          C       0.63493   0.28443   0.88366  -0.04858
C          C       0.71394   0.35075   0.89636  -0.05395
C          C       0.34926   0.63332   0.87343  -0.04509
C          C       0.36310   0.71408   0.88002  -0.04736
C          C       0.28527   0.64900   0.87824  -0.04754
C          C       0.61810   0.34984   0.79704  -0.12237
C          C       0.64896   0.26600   0.79808  -0.10684
C          C       0.72825   0.37600   0.78427  -0.10816
C          C       0.38173   0.64842   0.78824  -0.11669
C          C       0.34844   0.73299   0.79817  -0.11397
C          C       0.26722   0.61926   0.78122  -0.11580
C          C       0.60151   0.37201   0.76211  -0.09904
C          C       0.62492   0.22711   0.76049  -0.10039
C          C       0.76756   0.39417   0.75075  -0.10412
C          C       0.39870   0.62663   0.75310  -0.09825
C          C       0.37136   0.77273   0.77256  -0.09968
C          C       0.22774   0.60241   0.74871  -0.10021
C          C       0.61744   0.41008   0.81402   0.05629
C          C       0.58653   0.20565   0.80812   0.05523
C          C       0.79310   0.38732   0.82926   0.05628
C          C       0.38285   0.58826   0.80067   0.05773
C          C       0.40961   0.79472   0.82469   0.05663
C          C       0.20527   0.61532   0.81519   0.05423
C          C       0.65194   0.42594   0.89150  -0.12658
C          C       0.57255   0.22398   0.89257  -0.13018
C          C       0.77852   0.36079   0.93681  -0.13112
C          C       0.34907   0.57237   0.88078  -0.12922
C          C       0.42469   0.77581   0.90211  -0.12886
C          C       0.22424   0.64760   0.90414  -0.13198
C          C       0.66810   0.40352   0.92810  -0.10634
C          C       0.59637   0.26270   0.93215  -0.10811
C          C       0.73925   0.34287   0.97075  -0.10081
C          C       0.33266   0.59452   0.91857  -0.10581
C          C       0.40177   0.73618   0.92820  -0.10853
C          C       0.26380   0.66451   0.93467  -0.10776
C          C       0.59861   0.43285   0.79641   0.07000
C          C       0.56237   0.16372   0.78672   0.06214
C          C       0.83508   0.40753   0.80889   0.06736
C          C       0.40123   0.56511   0.77861   0.06683
C          C       0.43288   0.83651   0.80503   0.06795
C          C       0.16279   0.59542   0.80489   0.06746
C          C       0.54630   0.44185   0.74150   0.20514
C          C       0.55326   0.10366   0.71836   0.20490
C          C       0.89304   0.45040   0.70752   0.20776
C          C       0.45097   0.55409   0.71353   0.20492
C          C       0.44515   0.89617   0.72780   0.20622
C          C       0.10124   0.54959   0.72532   0.20260
C          C       0.56674   0.48282   0.75399  -0.17227
C          C       0.51277   0.08269   0.74049  -0.17407
C          C       0.91295   0.43014   0.72685  -0.18591
C          C       0.42955   0.51317   0.71889  -0.17743
C          C       0.48624   0.91664   0.74347  -0.17900
C          C       0.08169   0.56992   0.75440  -0.17950
C          C       0.54800   0.50381   0.73771  -0.12361
C          C       0.49263   0.04257   0.74379  -0.12497
C          C       0.95334   0.45043   0.72504  -0.12327
C          C       0.44746   0.49115   0.71729  -0.12220
C          C       0.50795   0.95699   0.74066  -0.12297
C          C       0.04114   0.55086   0.74660  -0.12913
C          C       0.50755   0.48538   0.70945   0.05969
C          C       0.51182   0.02166   0.72092   0.06208
C          C       0.97560   0.49088   0.70327   0.05399
C          C       0.48818   0.50859   0.70472   0.06128
C          C       0.48979   0.97900   0.72112   0.05857
C          C       0.01850   0.51117   0.71054   0.05748
C          C       0.48725   0.44441   0.69421  -0.13085
C          C       0.55215   0.04266   0.69574  -0.13044
C          C       0.95536   0.51077   0.68053  -0.12818
C          C       0.50919   0.54941   0.68953  -0.12840
C          C       0.44933   0.95838   0.69797  -0.13003
C          C       0.03827   0.49105   0.68255  -0.12838
C          C       0.50599   0.42331   0.71266  -0.14966
C          C       0.57274   0.08306   0.69552  -0.14829
C          C       0.91477   0.49064   0.68119  -0.15796
C          C       0.49134   0.57152   0.69443  -0.14999
C          C       0.42713   0.91800   0.70164  -0.15420
C          C       0.07871   0.50993   0.68900  -0.15497
N          N       0.57129   0.42614   0.17990  -0.28713
N          N       0.57916   0.14692   0.22070  -0.29221
N          N       0.85475   0.43294   0.23122  -0.29921
N          N       0.43435   0.57762   0.22859  -0.28878
N          N       0.42513   0.85517   0.22560  -0.29290
N          N       0.14606   0.56734   0.24389  -0.29903
N          N       0.56323   0.41831   0.75038  -0.30040
N          N       0.57589   0.14410   0.72729  -0.29449
N          N       0.85249   0.43269   0.71469  -0.28514
N          N       0.43543   0.57866   0.72586  -0.29532
N          N       0.42039   0.85574   0.73789  -0.29372
N          N       0.14199   0.56655   0.72444  -0.29024

