data_crystal

_audit_creation_method 'AiiDA-DDEC plugin'

_cell_length_a        37.04016
_cell_length_b        37.33066
_cell_length_c         8.05914

_cell_angle_alpha     62.44969
_cell_angle_beta     84.89993
_cell_angle_gamma     119.69620

_symmetry_space_group_name_Hall 'P 1'
_symmetry_space_group_name_H-M  'P 1'

loop_
_symmetry_equiv_pos_as_xyz
 'x,y,z'

loop_
_atom_site_label
_atom_site_type_symbol
_atom_site_fract_x
_atom_site_fract_y
_atom_site_fract_z
_atom_site_charge
H          H       0.33334   0.58205   0.25757   0.11440
H          H       0.44788   0.76965   0.28850   0.11456
H          H       0.25349   0.69452   0.26693   0.11816
H          H       0.69492   0.45568   0.22136   0.11794
H          H       0.58164   0.26753   0.18600   0.11504
H          H       0.77233   0.33815   0.21775   0.11193
H          H       0.37085   0.54368   0.23632   0.11419
H          H       0.48892   0.84818   0.27592   0.11498
H          H       0.17713   0.65658   0.25493   0.10956
H          H       0.65641   0.49387   0.23182   0.11288
H          H       0.54296   0.19190   0.17892   0.11462
H          H       0.84971   0.37423   0.21842   0.10514
H          H       0.48746   0.65187   0.25949   0.13726
H          H       0.37517   0.85264   0.26548   0.14016
H          H       0.18010   0.54303   0.25155   0.13783
H          H       0.53881   0.37944   0.23848   0.13535
H          H       0.65031   0.17851   0.25370   0.13891
H          H       0.85111   0.48734   0.24607   0.13613
H          H       0.44909   0.68993   0.27996   0.11001
H          H       0.33500   0.77440   0.27426   0.12216
H          H       0.25685   0.58185   0.26238   0.11228
H          H       0.57839   0.34205   0.22449   0.11313
H          H       0.68963   0.25602   0.25124   0.11081
H          H       0.77324   0.45007   0.24878   0.11355
H          H       0.11865   0.59692   0.25012   0.25806
H          H       0.43521   0.54868   0.19073   0.26764
H          H       0.49128   0.91170   0.25476   0.26320
H          H       0.91189   0.43489   0.20475   0.26036
H          H       0.59362   0.49022   0.26243   0.26134
H          H       0.54158   0.12990   0.19049   0.26430
H          H       0.43572   0.49199   0.26191   0.09950
H          H       0.54183   0.97793   0.15407   0.10432
H          H       0.06874   0.59252   0.21262   0.10323
H          H       0.58831   0.53922   0.23356   0.09696
H          H       0.48772   0.05894   0.32830   0.10264
H          H       0.96334   0.43708   0.25184   0.10321
H          H       0.45794   0.44012   0.25432   0.12352
H          H       0.59607   0.05322   0.14111   0.12622
H          H       0.99417   0.56943   0.20684   0.12737
H          H       0.56592   0.59063   0.24053   0.12190
H          H       0.43287   0.98253   0.34607   0.12875
H          H       0.03730   0.45907   0.26654   0.12985
H          H       0.30502   0.54306   0.78317   0.11614
H          H       0.41782   0.73236   0.81234   0.11484
H          H       0.22745   0.66143   0.77943   0.11090
H          H       0.66705   0.41746   0.74494   0.11549
H          H       0.55224   0.23053   0.70760   0.11441
H          H       0.74555   0.30432   0.73432   0.11812
H          H       0.34449   0.50602   0.77094   0.11315
H          H       0.45667   0.80820   0.81816   0.11509
H          H       0.15077   0.62633   0.77084   0.10504
H          H       0.62993   0.45599   0.76916   0.11294
H          H       0.51133   0.15219   0.71868   0.11385
H          H       0.82265   0.34298   0.73921   0.11026
H          H       0.46190   0.62220   0.75716   0.13532
H          H       0.34814   0.82002   0.75413   0.13794
H          H       0.14922   0.51227   0.75054   0.13612
H          H       0.51341   0.34975   0.73826   0.13932
H          H       0.62398   0.14613   0.74089   0.14067
H          H       0.81976   0.45588   0.74902   0.13718
H          H       0.42142   0.65851   0.77347   0.11361
H          H       0.30869   0.74244   0.75733   0.11009
H          H       0.22649   0.54884   0.75440   0.11402
H          H       0.55137   0.31148   0.71476   0.11019
H          H       0.66386   0.22390   0.73501   0.12348
H          H       0.74240   0.41653   0.74420   0.11260
H          H       0.08898   0.56594   0.78100   0.25964
H          H       0.40901   0.51242   0.72795   0.26244
H          H       0.45773   0.86983   0.80898   0.26204
H          H       0.88165   0.40296   0.74202   0.26256
H          H       0.56738   0.45360   0.80488   0.26566
H          H       0.50885   0.08859   0.74089   0.26427
H          H       0.41099   0.45859   0.79434   0.09842
H          H       0.51146   0.94007   0.67503   0.10347
H          H       0.03811   0.56392   0.73111   0.10278
H          H       0.56591   0.51013   0.73774   0.09959
H          H       0.45814   0.02218   0.84499   0.10724
H          H       0.93252   0.40861   0.77017   0.09997
H          H       0.43384   0.40752   0.78468   0.12219
H          H       0.56661   0.01683   0.65414   0.12925
H          H       0.96385   0.54178   0.71991   0.12979
H          H       0.54347   0.56169   0.74543   0.12475
H          H       0.40353   0.94675   0.85840   0.12944
H          H       0.00694   0.43158   0.77594   0.12729
C          C       0.30465   0.66156   0.27713   0.36974
C          C       0.36539   0.66022   0.28248   0.37277
C          C       0.36554   0.72126   0.28318   0.37199
C          C       0.72244   0.37109   0.22737   0.37298
C          C       0.66216   0.37353   0.21866   0.37298
C          C       0.66110   0.31166   0.22149   0.37287
C          C       0.38891   0.76707   0.28072  -0.02076
C          C       0.25985   0.64017   0.26696  -0.01200
C          C       0.38851   0.63817   0.27175  -0.01753
C          C       0.63797   0.26638   0.22068  -0.01920
C          C       0.76788   0.39212   0.23131  -0.01430
C          C       0.63939   0.39658   0.22082  -0.01850
C          C       0.36688   0.59680   0.25905  -0.08233
C          C       0.43259   0.78849   0.28074  -0.09439
C          C       0.23731   0.66162   0.26264  -0.08235
C          C       0.66107   0.43969   0.22242  -0.08224
C          C       0.59618   0.24760   0.20180  -0.08161
C          C       0.78981   0.37071   0.22383  -0.08192
C          C       0.38803   0.57560   0.24692  -0.20808
C          C       0.45531   0.83233   0.27329  -0.21142
C          C       0.19480   0.64027   0.25643  -0.20845
C          C       0.63940   0.46078   0.22864  -0.20637
C          C       0.57462   0.20518   0.19984  -0.20789
C          C       0.83291   0.39098   0.22396  -0.21075
C          C       0.43175   0.59539   0.24729   0.24047
C          C       0.43469   0.85581   0.26821   0.24638
C          C       0.17366   0.59700   0.25529   0.24975
C          C       0.59515   0.43921   0.23435   0.24088
C          C       0.59397   0.17993   0.21849   0.24671
C          C       0.85554   0.43354   0.22936   0.25126
C          C       0.45390   0.63700   0.25852  -0.18526
C          C       0.39096   0.83458   0.26856  -0.18706
C          C       0.19633   0.57598   0.25468  -0.17360
C          C       0.57301   0.39609   0.23272  -0.19383
C          C       0.63567   0.19821   0.23824  -0.17459
C          C       0.83385   0.45499   0.23912  -0.17035
C          C       0.43217   0.65783   0.27081  -0.07966
C          C       0.36870   0.79079   0.27505  -0.07138
C          C       0.23892   0.59778   0.26082  -0.07460
C          C       0.59530   0.37546   0.22516  -0.07639
C          C       0.65721   0.24119   0.23758  -0.06926
C          C       0.79048   0.43402   0.24028  -0.07414
C          C       0.49046   0.57979   0.25520   0.46127
C          C       0.44665   0.92805   0.27136   0.46125
C          C       0.10142   0.53473   0.25825   0.45472
C          C       0.53430   0.45172   0.23589   0.46464
C          C       0.58208   0.10728   0.22017   0.46016
C          C       0.92881   0.49268   0.22984   0.45043
C          C       0.50012   0.54585   0.24859  -0.02051
C          C       0.48278   0.97420   0.25483  -0.04564
C          C       0.05795   0.52623   0.24399  -0.03357
C          C       0.52407   0.48511   0.24511  -0.03072
C          C       0.54636   0.06210   0.22933  -0.02581
C          C       0.97328   0.50211   0.23007  -0.03986
C          C       0.46945   0.50300   0.25426  -0.10694
C          C       0.52902   0.99434   0.19801  -0.11633
C          C       0.04598   0.55791   0.22390  -0.12655
C          C       0.55455   0.52780   0.24065  -0.12504
C          C       0.50021   0.04219   0.28531  -0.11882
C          C       0.98573   0.47116   0.24444  -0.12522
C          C       0.48132   0.47318   0.25147  -0.08396
C          C       0.56027   0.03752   0.18570  -0.08443
C          C       0.00422   0.54577   0.21837  -0.09508
C          C       0.54269   0.55766   0.24291  -0.08771
C          C       0.46887   0.99887   0.29830  -0.09696
C          C       0.02729   0.48291   0.25279  -0.09622
C          C       0.27691   0.62782   0.77573   0.37059
C          C       0.33729   0.62571   0.78443   0.37350
C          C       0.33792   0.68722   0.78313   0.37136
C          C       0.69478   0.33754   0.72524   0.37130
C          C       0.63439   0.33954   0.71775   0.37120
C          C       0.63396   0.27823   0.71787   0.37130
C          C       0.36092   0.73264   0.78323  -0.01876
C          C       0.23171   0.60699   0.76953  -0.01370
C          C       0.36043   0.60308   0.78086  -0.01716
C          C       0.61062   0.23234   0.72076  -0.02229
C          C       0.73948   0.35865   0.73563  -0.01315
C          C       0.61176   0.36212   0.72765  -0.01675
C          C       0.33908   0.55985   0.77989  -0.08228
C          C       0.40306   0.75198   0.79871  -0.08058
C          C       0.21002   0.62885   0.77332  -0.07921
C          C       0.63362   0.40318   0.74240  -0.08383
C          C       0.56728   0.21134   0.71735  -0.09310
C          C       0.76203   0.33736   0.73758  -0.07951
C          C       0.36131   0.53935   0.77252  -0.20596
C          C       0.42474   0.79456   0.79965  -0.20891
C          C       0.16728   0.60905   0.76910  -0.21186
C          C       0.61276   0.42454   0.75569  -0.20586
C          C       0.54468   0.16765   0.72390  -0.21028
C          C       0.80486   0.35900   0.74045  -0.21010
C          C       0.40565   0.56151   0.76524   0.24193
C          C       0.40510   0.81949   0.78325   0.24830
C          C       0.14480   0.56647   0.76347   0.25008
C          C       0.56920   0.40536   0.75407   0.23834
C          C       0.56510   0.14387   0.73141   0.24640
C          C       0.82618   0.40231   0.74130   0.24933
C          C       0.42753   0.60486   0.76524  -0.19256
C          C       0.36301   0.80060   0.76718  -0.17401
C          C       0.16630   0.54458   0.75775  -0.17112
C          C       0.54685   0.36417   0.74017  -0.18653
C          C       0.60842   0.16452   0.73519  -0.18566
C          C       0.80336   0.42295   0.74563  -0.17358
C          C       0.40473   0.62491   0.77407  -0.07795
C          C       0.34138   0.75749   0.76859  -0.06972
C          C       0.20932   0.56514   0.76028  -0.07287
C          C       0.56831   0.34313   0.72675  -0.07941
C          C       0.63056   0.20816   0.72990  -0.07302
C          C       0.76048   0.40092   0.74255  -0.07581
C          C       0.46600   0.54830   0.77384   0.46244
C          C       0.41736   0.89257   0.77921   0.45913
C          C       0.07198   0.50775   0.75819   0.44597
C          C       0.51037   0.42064   0.75344   0.45806
C          C       0.55317   0.07169   0.72767   0.46109
C          C       0.89892   0.46522   0.73339   0.45410
C          C       0.47646   0.51494   0.76632  -0.02757
C          C       0.45308   0.93758   0.77090  -0.02286
C          C       0.02779   0.49869   0.75445  -0.03881
C          C       0.50079   0.45452   0.76181  -0.02000
C          C       0.51692   0.02557   0.74418  -0.04829
C          C       0.94291   0.47446   0.74243  -0.03281
C          C       0.44543   0.47110   0.77872  -0.12500
C          C       0.49913   0.95718   0.71608  -0.12204
C          C       0.01544   0.52975   0.73949  -0.12360
C          C       0.53174   0.49817   0.75067  -0.10963
C          C       0.47071   0.00554   0.80144  -0.11795
C          C       0.95511   0.44309   0.75998  -0.12641
C          C       0.45751   0.44146   0.77573  -0.08403
C          C       0.53064   0.00063   0.70198  -0.09643
C          C       0.97375   0.51791   0.73261  -0.09788
C          C       0.51975   0.52786   0.75378  -0.08580
C          C       0.43930   0.96232   0.81410  -0.08823
C          C       0.99689   0.45520   0.76497  -0.09128
N          N       0.32418   0.70310   0.27759  -0.41416
N          N       0.32357   0.63837   0.28272  -0.41528
N          N       0.38752   0.70117   0.28588  -0.42474
N          N       0.70222   0.32928   0.22917  -0.41237
N          N       0.70399   0.39494   0.22053  -0.42189
N          N       0.63959   0.33235   0.21671  -0.41420
N          N       0.13053   0.57753   0.25105  -0.36820
N          N       0.45085   0.57167   0.23557  -0.37309
N          N       0.45967   0.89999   0.26075  -0.36674
N          N       0.89940   0.45194   0.22641  -0.36961
N          N       0.57528   0.46227   0.24422  -0.37132
N          N       0.56945   0.13651   0.22028  -0.37796
N          N       0.29681   0.66944   0.77539  -0.41128
N          N       0.29559   0.60425   0.78163  -0.42062
N          N       0.35954   0.66668   0.78781  -0.41319
N          N       0.67522   0.29618   0.72397  -0.41349
N          N       0.67607   0.36095   0.71927  -0.41582
N          N       0.61209   0.29857   0.71407  -0.42468
N          N       0.10134   0.54855   0.76172  -0.36917
N          N       0.42598   0.53886   0.75533  -0.37173
N          N       0.42971   0.86306   0.78048  -0.37505
N          N       0.86970   0.42222   0.74185  -0.37184
N          N       0.55054   0.42938   0.76677  -0.36806
N          N       0.54024   0.09994   0.73721  -0.36984
O          O       0.91983   0.51996   0.23547  -0.44250
O          O       0.50833   0.41841   0.21543  -0.46028
O          O       0.61900   0.11610   0.21753  -0.45159
O          O       0.10945   0.50522   0.27418  -0.43727
O          O       0.51604   0.61171   0.28262  -0.45680
O          O       0.40823   0.91671   0.29257  -0.45150
O          O       0.89050   0.49421   0.72094  -0.43661
O          O       0.48404   0.38794   0.73108  -0.45448
O          O       0.59142   0.08277   0.70815  -0.44953
O          O       0.08082   0.48014   0.75545  -0.44018
O          O       0.49077   0.58046   0.80168  -0.45982
O          O       0.38067   0.88422   0.77982  -0.45197

