data_crystal

_audit_creation_method 'AiiDA-DDEC plugin'

_cell_length_a        44.44540
_cell_length_b        44.44830
_cell_length_c         8.28848

_cell_angle_alpha     121.05172
_cell_angle_beta     67.53244
_cell_angle_gamma     120.50312

_symmetry_space_group_name_Hall 'P 1'
_symmetry_space_group_name_H-M  'P 1'

loop_
_symmetry_equiv_pos_as_xyz
 'x,y,z'

loop_
_atom_site_label
_atom_site_type_symbol
_atom_site_fract_x
_atom_site_fract_y
_atom_site_fract_z
_atom_site_charge
H          H       0.33590   0.73745   0.17650   0.11171
H          H       0.25112   0.58057   0.26075   0.11282
H          H       0.41688   0.65855   0.16876   0.11046
H          H       0.66385   0.25714   0.31996   0.11047
H          H       0.74356   0.42018   0.32218   0.11101
H          H       0.58211   0.33441   0.29232   0.11013
H          H       0.37264   0.80124   0.16813   0.10728
H          H       0.18708   0.55234   0.24981   0.10894
H          H       0.44674   0.62233   0.15284   0.10012
H          H       0.62719   0.19326   0.32387   0.10709
H          H       0.80833   0.45007   0.33021   0.10637
H          H       0.55432   0.37292   0.31064   0.10372
H          H       0.45904   0.80535   0.30360   0.12200
H          H       0.19805   0.65409   0.24977   0.12111
H          H       0.34574   0.54446   0.32095   0.12189
H          H       0.53932   0.19224   0.21560   0.11977
H          H       0.80561   0.34104   0.19046   0.11902
H          H       0.65762   0.45811   0.23000   0.11844
H          H       0.42211   0.73931   0.29806   0.11057
H          H       0.26287   0.68203   0.25783   0.11101
H          H       0.31602   0.58128   0.33570   0.11539
H          H       0.57633   0.25806   0.22364   0.11388
H          H       0.74008   0.31163   0.18816   0.11150
H          H       0.68519   0.41932   0.21642   0.11098
H          H       0.49989   0.90956   0.27749   0.11627
H          H       0.09529   0.58367   0.18734   0.11613
H          H       0.41278   0.50826   0.29624   0.11707
H          H       0.49800   0.09123   0.28466   0.11338
H          H       0.90643   0.40940   0.22805   0.11546
H          H       0.58771   0.50318   0.33389   0.11338
H          H       0.53329   0.97479   0.28928   0.10162
H          H       0.03211   0.55353   0.16057   0.10089
H          H       0.44104   0.47299   0.30327   0.10629
H          H       0.46368   0.02833   0.30182   0.10407
H          H       0.97069   0.43734   0.22899   0.10808
H          H       0.55891   0.53994   0.34601   0.10182
H          H       0.43866   0.97438   0.25404   0.10746
H          H       0.01656   0.46733   0.31723   0.10313
H          H       0.54368   0.55812   0.21037   0.10297
H          H       0.56075   0.01962   0.22828   0.10535
H          H       0.97988   0.53854   0.22692   0.11170
H          H       0.46803   0.43606   0.15909   0.10708
H          H       0.40533   0.91047   0.25498   0.10305
H          H       0.07955   0.49729   0.34034   0.10183
H          H       0.51519   0.59438   0.21770   0.10179
H          H       0.59438   0.08248   0.21489   0.10081
H          H       0.91668   0.50881   0.20759   0.10691
H          H       0.49658   0.39995   0.14942   0.10063
H          H       0.40014   0.85837   0.27412   0.06000
H          H       0.13515   0.54830   0.35461   0.06328
H          H       0.46229   0.60425   0.27673   0.06019
H          H       0.59889   0.13662   0.21779   0.06087
H          H       0.86075   0.45223   0.15768   0.06910
H          H       0.54579   0.39547   0.16884   0.06040
H          H       0.33638   0.74298   0.69434   0.11180
H          H       0.24897   0.59027   0.81091   0.10927
H          H       0.41602   0.65824   0.67002   0.11034
H          H       0.66378   0.25901   0.81530   0.11041
H          H       0.74376   0.42284   0.84548   0.11109
H          H       0.58346   0.33315   0.75560   0.11174
H          H       0.37282   0.80786   0.69977   0.10874
H          H       0.18462   0.56540   0.82477   0.10912
H          H       0.44208   0.61836   0.65194   0.10181
H          H       0.62668   0.19551   0.82820   0.10734
H          H       0.80834   0.45172   0.85540   0.10772
H          H       0.55534   0.36974   0.76397   0.10221
H          H       0.46155   0.80673   0.78653   0.12166
H          H       0.19986   0.65611   0.70823   0.11846
H          H       0.33845   0.54473   0.82549   0.12007
H          H       0.53920   0.19275   0.70954   0.12141
H          H       0.80434   0.34109   0.69869   0.11894
H          H       0.65690   0.46241   0.75457   0.11951
H          H       0.42446   0.73994   0.77038   0.11339
H          H       0.26493   0.68204   0.70173   0.11024
H          H       0.31226   0.58426   0.83697   0.11083
H          H       0.57631   0.25807   0.70893   0.10958
H          H       0.73934   0.31268   0.69366   0.11224
H          H       0.68499   0.42478   0.74748   0.11278
H          H       0.50066   0.91410   0.80153   0.11391
H          H       0.09016   0.59573   0.77837   0.11761
H          H       0.40633   0.49922   0.76389   0.11680
H          H       0.50146   0.10009   0.85682   0.11541
H          H       0.90574   0.41422   0.77377   0.11421
H          H       0.58858   0.50180   0.77807   0.11668
H          H       0.53533   0.97940   0.80474   0.10705
H          H       0.02592   0.56637   0.77963   0.10855
H          H       0.43628   0.46508   0.76212   0.10636
H          H       0.46731   0.03655   0.87264   0.10636
H          H       0.96939   0.44531   0.79393   0.10416
H          H       0.55840   0.53612   0.78346   0.10029
H          H       0.44384   0.97591   0.71806   0.10734
H          H       0.02160   0.46181   0.71656   0.11032
H          H       0.53593   0.56071   0.75651   0.10323
H          H       0.56303   0.01567   0.65265   0.10635
H          H       0.98028   0.53340   0.66595   0.10948
H          H       0.46163   0.43500   0.71130   0.10496
H          H       0.40893   0.91240   0.73130   0.10251
H          H       0.08527   0.49181   0.72311   0.10748
H          H       0.50540   0.59467   0.76692   0.10299
H          H       0.59674   0.07919   0.63988   0.10172
H          H       0.91665   0.50253   0.65090   0.10544
H          H       0.49211   0.40182   0.70867   0.10005
H          H       0.40206   0.86303   0.78148   0.05895
H          H       0.13999   0.54062   0.72246   0.06368
H          H       0.45405   0.60042   0.79231   0.05799
H          H       0.60001   0.13601   0.66983   0.06164
H          H       0.85955   0.45014   0.65400   0.06991
H          H       0.54049   0.39851   0.72378   0.05507
C          C       0.35398   0.69691   0.24618   0.37529
C          C       0.29954   0.64906   0.25833   0.37847
C          C       0.34810   0.64399   0.25708   0.37158
C          C       0.64523   0.29947   0.26398   0.37662
C          C       0.69959   0.34754   0.25554   0.38215
C          C       0.65106   0.35254   0.25495   0.37156
C          C       0.37650   0.73464   0.23986  -0.00709
C          C       0.26119   0.63302   0.25897  -0.00764
C          C       0.36474   0.62233   0.25444  -0.00368
C          C       0.62269   0.26152   0.26871  -0.00496
C          C       0.73803   0.36413   0.25315  -0.00489
C          C       0.63522   0.37449   0.25335  -0.00383
C          C       0.36282   0.75279   0.20539  -0.09105
C          C       0.23926   0.59643   0.25836  -0.09087
C          C       0.40175   0.63381   0.20434  -0.08688
C          C       0.63672   0.24245   0.29403  -0.09137
C          C       0.75758   0.40316   0.29129  -0.08454
C          C       0.59823   0.36133   0.27702  -0.08497
C          C       0.38344   0.78884   0.20437  -0.18155
C          C       0.20326   0.58097   0.25487  -0.17974
C          C       0.41819   0.61357   0.19685  -0.17672
C          C       0.61610   0.20618   0.29250  -0.18214
C          C       0.79369   0.41954   0.29360  -0.17674
C          C       0.58298   0.38274   0.28499  -0.18270
C          C       0.41842   0.80855   0.24327   0.20602
C          C       0.18783   0.60180   0.25333   0.21000
C          C       0.39811   0.58109   0.24015   0.21245
C          C       0.58063   0.18729   0.26206   0.20438
C          C       0.81139   0.39700   0.25435   0.21248
C          C       0.60437   0.41793   0.26702   0.22246
C          C       0.43215   0.78989   0.27433  -0.15442
C          C       0.20988   0.63850   0.25520  -0.15449
C          C       0.36102   0.56937   0.28689  -0.15415
C          C       0.56653   0.20681   0.23977  -0.15233
C          C       0.79165   0.35795   0.21816  -0.15982
C          C       0.64141   0.43099   0.24370  -0.15877
C          C       0.41168   0.75343   0.27158  -0.08752
C          C       0.24585   0.65393   0.25890  -0.08966
C          C       0.34455   0.58981   0.29544  -0.09145
C          C       0.58714   0.24337   0.24379  -0.09331
C          C       0.75548   0.34174   0.21668  -0.09285
C          C       0.65661   0.40953   0.23553  -0.09074
C          C       0.42873   0.86706   0.26052   0.07397
C          C       0.12873   0.56013   0.28892   0.07616
C          C       0.44539   0.57435   0.25563   0.07188
C          C       0.57023   0.12868   0.24245   0.07272
C          C       0.86945   0.44008   0.20966   0.07056
C          C       0.56064   0.42659   0.22830   0.07087
C          C       0.45027   0.90511   0.26292   0.05935
C          C       0.09185   0.54270   0.26625   0.04664
C          C       0.46192   0.55331   0.25545   0.05439
C          C       0.54856   0.09139   0.24947   0.06202
C          C       0.90707   0.45705   0.21816   0.05159
C          C       0.54426   0.44909   0.24060   0.06262
C          C       0.48680   0.92398   0.27146  -0.09636
C          C       0.07768   0.55823   0.21598  -0.10555
C          C       0.44142   0.51847   0.27613  -0.09491
C          C       0.51134   0.07525   0.27350  -0.09531
C          C       0.92311   0.43743   0.22470  -0.10797
C          C       0.56152   0.48891   0.29556  -0.09454
C          C       0.50539   0.96066   0.27705  -0.13197
C          C       0.04204   0.54120   0.20266  -0.13193
C          C       0.45742   0.49882   0.27750  -0.12980
C          C       0.49235   0.03973   0.28185  -0.12966
C          C       0.95916   0.45353   0.22647  -0.13022
C          C       0.54535   0.50913   0.30046  -0.12792
C          C       0.48898   0.98017   0.27086   0.06728
C          C       0.01887   0.50789   0.23746   0.05702
C          C       0.49458   0.51251   0.25453   0.07165
C          C       0.50920   0.01836   0.26639   0.06939
C          C       0.98082   0.49039   0.22784   0.06090
C          C       0.51128   0.49089   0.25234   0.07269
C          C       0.45244   0.96103   0.26297  -0.13251
C          C       0.03346   0.49232   0.28459  -0.13341
C          C       0.51496   0.54741   0.23382  -0.13581
C          C       0.54645   0.03482   0.24177  -0.13563
C          C       0.96439   0.51002   0.22456  -0.13507
C          C       0.49398   0.45118   0.20033  -0.13719
C          C       0.43355   0.92463   0.26113  -0.13173
C          C       0.06908   0.50932   0.29901  -0.12443
C          C       0.49897   0.56775   0.23712  -0.13431
C          C       0.56562   0.07041   0.23359  -0.13338
C          C       0.92845   0.49347   0.21624  -0.12334
C          C       0.51024   0.43070   0.19302  -0.13176
C          C       0.35504   0.69957   0.73630   0.37343
C          C       0.29979   0.65293   0.75171   0.38000
C          C       0.34739   0.64663   0.75452   0.37469
C          C       0.64513   0.30051   0.75627   0.37533
C          C       0.69936   0.34936   0.76167   0.38012
C          C       0.65144   0.35464   0.75572   0.37102
C          C       0.37800   0.73755   0.73293  -0.00430
C          C       0.26141   0.63770   0.75388  -0.00763
C          C       0.36252   0.62400   0.75620  -0.00993
C          C       0.62256   0.26252   0.76023  -0.01051
C          C       0.73760   0.36590   0.76552  -0.00414
C          C       0.63582   0.37674   0.75304   0.00346
C          C       0.36377   0.75743   0.71540  -0.09403
C          C       0.23817   0.60429   0.78580  -0.08879
C          C       0.39936   0.63373   0.70707  -0.08246
C          C       0.63665   0.24411   0.78990  -0.09023
C          C       0.75743   0.40515   0.81059  -0.08769
C          C       0.59920   0.36146   0.75579  -0.08812
C          C       0.38426   0.79408   0.72221  -0.18146
C          C       0.20208   0.59012   0.79069  -0.17539
C          C       0.41379   0.61153   0.69891  -0.17913
C          C       0.61603   0.20824   0.79315  -0.18438
C          C       0.79350   0.42106   0.81370  -0.18072
C          C       0.58373   0.38224   0.76022  -0.17690
C          C       0.41984   0.81257   0.75028   0.20560
C          C       0.18766   0.60836   0.76114   0.20555
C          C       0.39199   0.57915   0.74266   0.21903
C          C       0.58055   0.18914   0.76310   0.20658
C          C       0.81092   0.39779   0.76854   0.21269
C          C       0.60434   0.41914   0.76100   0.21729
C          C       0.43414   0.79226   0.76444  -0.15221
C          C       0.21088   0.64205   0.73127  -0.15605
C          C       0.35516   0.56949   0.79063  -0.15681
C          C       0.56641   0.20783   0.73504  -0.15811
C          C       0.79082   0.35865   0.72903  -0.15984
C          C       0.64110   0.43411   0.75593  -0.15055
C          C       0.41368   0.75533   0.75521  -0.08915
C          C       0.24711   0.65639   0.72748  -0.09312
C          C       0.34066   0.59162   0.79818  -0.09011
C          C       0.58703   0.24395   0.73413  -0.08751
C          C       0.75472   0.34294   0.72649  -0.09419
C          C       0.65664   0.41319   0.75085  -0.09570
C          C       0.43057   0.87131   0.76817   0.07805
C          C       0.13043   0.56114   0.74429   0.06155
C          C       0.43701   0.57026   0.76556   0.07514
C          C       0.57174   0.12997   0.72720   0.07011
C          C       0.86883   0.43924   0.71084   0.06984
C          C       0.55844   0.42818   0.74476   0.07359
C          C       0.45254   0.90900   0.76623   0.05753
C          C       0.09251   0.54580   0.74879   0.04799
C          C       0.45365   0.54900   0.76282   0.05780
C          C       0.55115   0.09359   0.74431   0.05673
C          C       0.90664   0.45668   0.71632   0.05050
C          C       0.54235   0.44955   0.74482   0.06210
C          C       0.48865   0.92805   0.78348  -0.09501
C          C       0.07484   0.56651   0.76695  -0.10098
C          C       0.43479   0.51211   0.76072  -0.09177
C          C       0.51441   0.08107   0.81075  -0.09254
C          C       0.92250   0.44047   0.75122  -0.10711
C          C       0.56074   0.48772   0.76445  -0.09288
C          C       0.50785   0.96432   0.78366  -0.13793
C          C       0.03862   0.54960   0.76619  -0.12983
C          C       0.45198   0.49311   0.75843  -0.13001
C          C       0.49558   0.04545   0.81765  -0.12790
C          C       0.95837   0.45804   0.76060  -0.13154
C          C       0.54344   0.50660   0.76661  -0.12760
C          C       0.49208   0.98275   0.76384   0.06467
C          C       0.01823   0.51132   0.74622   0.06428
C          C       0.48900   0.50948   0.75473   0.07138
C          C       0.51247   0.02091   0.76041   0.07211
C          C       0.98009   0.49260   0.73557   0.05527
C          C       0.50723   0.48880   0.74913   0.07227
C          C       0.45613   0.96325   0.74374  -0.13579
C          C       0.03610   0.49119   0.73124  -0.13133
C          C       0.50751   0.54659   0.75849  -0.13454
C          C       0.54937   0.03404   0.69826  -0.14019
C          C       0.96412   0.50805   0.69626  -0.13666
C          C       0.48934   0.45039   0.72696  -0.13210
C          C       0.43669   0.92733   0.74768  -0.12968
C          C       0.07224   0.50799   0.73296  -0.12568
C          C       0.49030   0.56605   0.76447  -0.13382
C          C       0.56828   0.06968   0.69048  -0.12727
C          C       0.92819   0.49047   0.68597  -0.12071
C          C       0.50652   0.43135   0.72423  -0.13323
N          N       0.31898   0.68350   0.24994  -0.41865
N          N       0.31271   0.62828   0.26447  -0.41714
N          N       0.36978   0.67818   0.24874  -0.41106
N          N       0.68022   0.31285   0.26090  -0.42319
N          N       0.68627   0.36850   0.25258  -0.41623
N          N       0.62948   0.31815   0.26072  -0.41326
N          N       0.44144   0.84519   0.24711  -0.29713
N          N       0.15230   0.58774   0.23792  -0.29096
N          N       0.41251   0.55917   0.23743  -0.28899
N          N       0.55743   0.15102   0.26218  -0.29359
N          N       0.84759   0.41152   0.25712  -0.29267
N          N       0.59107   0.44165   0.27837  -0.28977
N          N       0.32021   0.68677   0.73785  -0.41895
N          N       0.31202   0.63199   0.76356  -0.41590
N          N       0.36999   0.68037   0.74198  -0.41388
N          N       0.67996   0.31396   0.75754  -0.41741
N          N       0.68631   0.37110   0.76300  -0.41863
N          N       0.62981   0.31951   0.75202  -0.41280
N          N       0.44293   0.84938   0.75633  -0.29897
N          N       0.15148   0.59577   0.76222  -0.28814
N          N       0.40470   0.55564   0.73960  -0.29443
N          N       0.55815   0.15364   0.77218  -0.28474
N          N       0.84719   0.41193   0.76839  -0.28831
N          N       0.59108   0.44236   0.76583  -0.29913

