data_crystal

_audit_creation_method 'AiiDA-DDEC plugin'

_cell_length_a        23.55160
_cell_length_b        23.53246
_cell_length_c         8.20293

_cell_angle_alpha     90.37960
_cell_angle_beta     92.26081
_cell_angle_gamma     120.59482

_symmetry_space_group_name_Hall 'P 1'
_symmetry_space_group_name_H-M  'P 1'

loop_
_symmetry_equiv_pos_as_xyz
 'x,y,z'

loop_
_atom_site_label
_atom_site_type_symbol
_atom_site_fract_x
_atom_site_fract_y
_atom_site_fract_z
_atom_site_charge
H          H       0.27401   0.72462   0.46540   0.10123
H          H       0.27267   0.54127   0.46468   0.10108
H          H       0.45655   0.72505   0.45816   0.10200
H          H       0.33262   0.51067   0.31111   0.10771
H          H       0.48630   0.81573   0.32005   0.10743
H          H       0.18026   0.66611   0.33704   0.10709
H          H       0.39244   0.44889   0.32994   0.11806
H          H       0.54898   0.93826   0.33099   0.11857
H          H       0.05829   0.60711   0.34950   0.12011
H          H       0.54572   0.61037   0.14570   0.10761
H          H       0.38807   0.93885   0.09852   0.10708
H          H       0.06275   0.45911   0.14184   0.10839
H          H       0.48510   0.66976   0.13689   0.10458
H          H       0.32805   0.81747   0.09099   0.10751
H          H       0.18321   0.51847   0.12976   0.10407
H          H       0.57043   0.53770   0.18553   0.06780
H          H       0.46293   0.03554   0.16084   0.06753
H          H       0.96560   0.42747   0.16286   0.06715
H          H       0.50356   0.37659   0.43063   0.11482
H          H       0.62539   0.12667   0.42890   0.11495
H          H       0.87523   0.49420   0.43242   0.11439
H          H       0.55312   0.30516   0.43648   0.11288
H          H       0.69535   0.24880   0.43818   0.11177
H          H       0.75358   0.44402   0.43515   0.10955
H          H       0.71311   0.45218   0.24095   0.11200
H          H       0.54768   0.26604   0.21335   0.11403
H          H       0.73742   0.29150   0.23409   0.11220
H          H       0.66193   0.52091   0.25006   0.10570
H          H       0.47842   0.14440   0.21506   0.10695
H          H       0.85845   0.34205   0.23722   0.10709
H          H       0.26874   0.72451   0.95589   0.10261
H          H       0.27195   0.54380   0.97764   0.10342
H          H       0.45398   0.72966   0.97094   0.10243
H          H       0.33361   0.51727   0.81891   0.10891
H          H       0.48278   0.81870   0.82697   0.10949
H          H       0.17592   0.65681   0.80234   0.10480
H          H       0.39496   0.45690   0.82900   0.11860
H          H       0.54478   0.94153   0.84029   0.11884
H          H       0.05405   0.59838   0.81961   0.11756
H          H       0.54441   0.60449   0.63981   0.10759
H          H       0.39562   0.93762   0.60069   0.10913
H          H       0.06186   0.44845   0.59618   0.10848
H          H       0.48515   0.66494   0.62338   0.10554
H          H       0.33511   0.81703   0.59586   0.10491
H          H       0.18300   0.50831   0.59249   0.10564
H          H       0.58089   0.54293   0.65054   0.06528
H          H       0.46963   0.03290   0.65860   0.06874
H          H       0.97195   0.43538   0.67924   0.06745
H          H       0.50388   0.38307   0.92063   0.11535
H          H       0.61981   0.12679   0.93739   0.11507
H          H       0.87307   0.49873   0.94254   0.11394
H          H       0.55319   0.31165   0.91986   0.11196
H          H       0.69124   0.24863   0.94279   0.11095
H          H       0.75159   0.44978   0.94682   0.11153
H          H       0.71952   0.45399   0.72653   0.11372
H          H       0.55200   0.26184   0.72041   0.11177
H          H       0.74166   0.29116   0.74095   0.11363
H          H       0.66846   0.52322   0.72843   0.10715
H          H       0.48438   0.14023   0.71869   0.10728
H          H       0.86286   0.34320   0.74623   0.10777
C          C       0.30044   0.69791   0.46305  -0.18187
C          C       0.29929   0.59493   0.46336  -0.18429
C          C       0.40293   0.69823   0.45996  -0.18448
C          C       0.26432   0.62863   0.46426   0.07744
C          C       0.36850   0.62899   0.46223   0.07853
C          C       0.36960   0.73359   0.46037   0.08009
C          C       0.40634   0.80656   0.46012   0.05472
C          C       0.19148   0.59274   0.46777   0.05417
C          C       0.40423   0.59243   0.46691   0.05784
C          C       0.37836   0.53072   0.38578  -0.13158
C          C       0.46713   0.84221   0.38566  -0.13035
C          C       0.15482   0.61961   0.39950  -0.12648
C          C       0.41175   0.49607   0.39489  -0.14743
C          C       0.50231   0.91094   0.39004  -0.15160
C          C       0.08641   0.58658   0.40463  -0.15110
C          C       0.47215   0.52127   0.48587   0.19619
C          C       0.47837   0.94711   0.46997   0.19951
C          C       0.05154   0.52526   0.47975   0.19926
C          C       0.49933   0.58938   0.07360  -0.16997
C          C       0.40977   0.91314   0.04045  -0.17039
C          C       0.08672   0.50224   0.06662  -0.17200
C          C       0.46528   0.62338   0.06750  -0.12532
C          C       0.37533   0.84448   0.03435  -0.12604
C          C       0.15501   0.53541   0.05853  -0.12416
C          C       0.54988   0.49847   0.08975   0.06537
C          C       0.50242   0.05533   0.07377   0.06638
C          C       0.94520   0.45056   0.08230   0.06411
C          C       0.57905   0.45685   0.08526   0.04311
C          C       0.54429   0.12691   0.07561   0.04110
C          C       0.87434   0.42330   0.08646   0.04184
C          C       0.54920   0.39713   0.99247  -0.09025
C          C       0.60505   0.15788  -0.00046  -0.08967
C          C       0.84287   0.45364   0.00734  -0.08584
C          C       0.57723   0.35770   0.99121  -0.17781
C          C       0.64449   0.22602   0.00162  -0.17829
C          C       0.77500   0.42575   0.00816  -0.18256
C          C       0.63676   0.37675   0.08127   0.17600
C          C       0.62469   0.26640   0.07894   0.17625
C          C       0.73540   0.36592   0.08626   0.17531
C          C       0.66703   0.43663   0.17212  -0.18158
C          C       0.56387   0.23571   0.15421  -0.18517
C          C       0.76682   0.33659   0.16929  -0.18132
C          C       0.63833   0.47559   0.17521  -0.11253
C          C       0.52481   0.16721   0.15359  -0.11304
C          C       0.83498   0.36493   0.16953  -0.11209
C          C       0.29644   0.69904   0.96044  -0.18469
C          C       0.29796   0.59741   0.97293  -0.18538
C          C       0.40031   0.70189   0.96912  -0.18424
C          C       0.26181   0.62982   0.96596   0.07992
C          C       0.36724   0.63278   0.97402   0.07905
C          C       0.36565   0.73590   0.96259   0.07926
C          C       0.40146   0.80878   0.96191   0.05553
C          C       0.18898   0.59277   0.96727   0.05509
C          C       0.40424   0.59757   0.97902   0.05670
C          C       0.37920   0.53683   0.89383  -0.13280
C          C       0.46300   0.84492   0.89122  -0.13096
C          C       0.15135   0.61455   0.88014  -0.12845
C          C       0.41338   0.50304   0.89813  -0.14770
C          C       0.49767   0.91359   0.89708  -0.15051
C          C       0.08305   0.58169   0.88816  -0.15138
C          C       0.47343   0.52787   0.99010   0.19644
C          C       0.47258   0.94918   0.97467   0.19825
C          C       0.04931   0.52559   0.98351   0.19668
C          C       0.49850   0.58354   0.56578  -0.16877
C          C       0.41637   0.91160   0.53983  -0.17183
C          C       0.08768   0.49678   0.54224  -0.17314
C          C       0.46515   0.61812   0.55594  -0.12436
C          C       0.38157   0.84300   0.53529  -0.12312
C          C       0.15614   0.53023   0.53736  -0.12151
C          C       0.55359   0.49693   0.57611   0.06363
C          C       0.50853   0.05303   0.56981   0.06387
C          C       0.94914   0.45221   0.58692   0.06870
C          C       0.58211   0.45472   0.57898   0.03932
C          C       0.54973   0.12470   0.57183   0.04294
C          C       0.87777   0.42252   0.58867   0.04318
C          C       0.55032   0.39241   0.49740  -0.08641
C          C       0.61006   0.15674   0.49367  -0.08961
C          C       0.84555   0.45048   0.50232  -0.08844
C          C       0.57839   0.35302   0.49967  -0.18305
C          C       0.64867   0.22499   0.49751  -0.18096
C          C       0.77765   0.42196   0.50257  -0.17905
C          C       0.63991   0.37439   0.58256   0.17897
C          C       0.62847   0.26424   0.57876   0.17725
C          C       0.73882   0.36386   0.58739   0.17664
C          C       0.67199   0.43669   0.66305  -0.18435
C          C       0.56826   0.23252   0.65650  -0.18159
C          C       0.77071   0.33587   0.67440  -0.17945
C          C       0.64338   0.47581   0.66187  -0.11385
C          C       0.53001   0.16397   0.65403  -0.11177
C          C       0.83909   0.36510   0.67584  -0.11268
N          N       0.50005   0.48088   0.48939  -0.30986
N          N       0.51853   0.01616   0.47121  -0.30754
N          N       0.98297   0.49690   0.48306  -0.30665
N          N       0.66554   0.33629   0.08140  -0.12104
N          N       0.50227   0.48844   0.98726  -0.30438
N          N       0.51264   0.01820   0.97646  -0.30889
N          N       0.98081   0.49851   0.98760  -0.31140
N          N       0.66888   0.33420   0.58365  -0.12249

