data_crystal

_audit_creation_method 'AiiDA-DDEC plugin'

_cell_length_a        27.87970
_cell_length_b        25.28176
_cell_length_c         8.25040

_cell_angle_alpha     78.93116
_cell_angle_beta     128.95224
_cell_angle_gamma     118.65016

_symmetry_space_group_name_Hall 'P 1'
_symmetry_space_group_name_H-M  'P 1'

loop_
_symmetry_equiv_pos_as_xyz
 'x,y,z'

loop_
_atom_site_label
_atom_site_type_symbol
_atom_site_fract_x
_atom_site_fract_y
_atom_site_fract_z
_atom_site_charge
H          H       0.20349   0.55740   0.16951   0.11856
H          H       0.25074   0.50147   0.14404   0.12562
H          H       0.38121   0.72865   0.31316   0.12207
H          H       0.47117   0.72832   0.31501   0.12151
H          H       0.51653   0.67158   0.28196   0.12082
H          H       0.34104   0.50155   0.15735   0.12240
H          H       0.41223   0.49489   0.14513   0.11672
H          H       0.61030   0.55911   0.22781   0.11046
H          H       0.54504   0.36612   0.17935   0.11599
H          H       0.42991   0.43155   0.18438   0.11008
H          H       0.68563   0.56937   0.23441   0.11478
H          H       0.49623   0.29001   0.28203   0.12336
H          H       0.76902   0.64058   0.20591   0.11808
H          H       0.85693   0.49555   0.31709   0.12459
H          H       0.75603   0.46135   0.30251   0.12112
H          H       0.94939   0.57627   0.30286   0.12035
H          H       0.96325   0.75575   0.20223   0.12170
H          H       0.86218   0.72208   0.18917   0.12587
H          H       0.03487   0.64473   0.29632   0.11440
H          H       0.48763   0.20099   0.43275   0.11305
H          H       0.23152   0.10861   0.96746   0.11931
H          H       0.29889   0.21768   0.98641   0.12747
H          H       0.22183   0.01389  -0.00227   0.14291
H          H       0.40597   0.04126   0.47168   0.10594
H          H       0.48354   0.10726   0.54660   0.10260
H          H       0.30437   0.73037   0.34105   0.12175
H          H       0.23200   0.91669   0.38914   0.13850
H          H       0.08071   0.64614   0.14344   0.12731
H          H       0.24961   0.59143   0.69343   0.11931
H          H       0.29823   0.53727   0.66896   0.12184
H          H       0.42283   0.76469   0.82015   0.12543
H          H       0.51842   0.76509   0.84730   0.12234
H          H       0.56726   0.70910   0.83006   0.12136
H          H       0.38858   0.53857   0.68078   0.11909
H          H       0.46067   0.53277   0.67235   0.10997
H          H       0.66051   0.59417   0.77126   0.11217
H          H       0.58716   0.40068   0.68844   0.11422
H          H       0.47717   0.46792   0.71493   0.11134
H          H       0.72377   0.60035   0.72198   0.11770
H          H       0.53208   0.32349   0.73128   0.11550
H          H       0.80777   0.67103   0.70471   0.12219
H          H       0.89669   0.52705   0.81202   0.12480
H          H       0.79729   0.49275   0.80681   0.12021
H          H       0.98517   0.60714   0.78074   0.11378
H          H       0.00753   0.78971   0.73021   0.12151
H          H       0.90414   0.75453   0.70630   0.12712
H          H       0.06797   0.67639   0.76359   0.11038
H          H       0.50928   0.22512   0.72399   0.11194
H          H       0.33579   0.16362   0.83085   0.10567
H          H       0.37762   0.26489   0.73671   0.11393
H          H       0.40650   0.09576   0.08862   0.13119
H          H       0.42693   0.05965   0.77540   0.09604
H          H       0.51016   0.11695   0.86543   0.11412
H          H       0.33682   0.76652   0.80154   0.12183
H          H       0.23884   0.94841   0.74617   0.15228
H          H       0.15606   0.67953   0.83496   0.11837
C          C       0.25235   0.58239   0.19354  -0.11480
C          C       0.43481   0.09094   0.52183  -0.18617
C          C       0.27863   0.55110   0.17922  -0.12061
C          C       0.26626   0.68267   0.26894  -0.10999
C          C       0.34219   0.58253   0.20806   0.07812
C          C       0.26022   0.92813   0.32720  -0.18021
C          C       0.37961   0.64804   0.25431   0.06695
C          C       0.20260   0.66523   0.21851  -0.01475
C          C       0.35279   0.67903   0.27486  -0.15861
C          C       0.19193   0.70572   0.27979   0.09179
C          C       0.28930   0.64755   0.24266   0.09201
C          C       0.12732   0.68949   0.23476  -0.20788
C          C       0.44294   0.67868   0.28056  -0.11117
C          C       0.13044   0.73809   0.30125   0.06123
C          C       0.46843   0.64697   0.26266  -0.12700
C          C       0.20597   0.78692   0.43686  -0.00860
C          C       0.43156   0.58172   0.21715   0.11219
C          C       0.24931   0.82485   0.36784   0.00703
C          C       0.36939   0.55125   0.19136  -0.17286
C          C       0.23982   0.76598   0.39152  -0.12119
C          C       0.45180   0.54259   0.19396  -0.14053
C          C       0.14274   0.60721   0.10471   0.24569
C          C       0.50999   0.55283   0.22406   0.00800
C          C       0.51860   0.50157   0.20360   0.07925
C          C       0.27747   0.88221   0.32714   0.04287
C          C       0.57442   0.51227   0.21242  -0.18170
C          C       0.32532   0.89600   0.29032   0.23953
C          C       0.58482   0.46365   0.20552   0.08392
C          C       0.53769   0.40372   0.18790  -0.17984
C          C       0.07374   0.73707   0.27716   0.00874
C          C       0.48127   0.39206   0.17821   0.08962
C          C       0.07303   0.79391   0.26119   0.23135
C          C       0.47238   0.44120   0.18521  -0.17644
C          C       0.56709   0.61218   0.28752   0.23948
C          C       0.64479   0.47442   0.22000  -0.00305
C          C       0.64708   0.42018   0.20894   0.24487
C          C       0.43152   0.32994   0.16604  -0.00516
C          C       0.36929   0.32539   0.10780   0.23902
C          C       0.69344   0.53093   0.23591  -0.13435
C          C       0.44458   0.28100   0.21996  -0.12806
C          C       0.75396   0.54843   0.25050   0.10594
C          C       0.78824   0.60878   0.23057  -0.17044
C          C       0.84637   0.62947   0.23715   0.07533
C          C       0.87190   0.58776   0.26894   0.07233
C          C       0.83753   0.52715   0.29212  -0.12062
C          C       0.78061   0.50798   0.28328  -0.12478
C          C       0.93012   0.60811   0.27690  -0.16322
C          C       0.96437   0.66811   0.25485   0.10167
C          C       0.93788   0.70908   0.22067  -0.12229
C          C       0.88128   0.69025   0.21357  -0.12234
C          C       0.02444   0.68309   0.27255  -0.11942
C          C       0.39981   0.21856   0.21280   0.09564
C          C       0.43121   0.18149   0.33781  -0.18277
C          C       0.39415   0.12130   0.35123   0.07897
C          C       0.32021   0.09346   0.20599   0.07838
C          C       0.28833   0.13014   0.07728  -0.12537
C          C       0.32639   0.19171   0.08643  -0.12487
C          C       0.27195   0.02792   0.15825  -0.18452
C          C       0.27502   0.98137   0.26074   0.07624
C          C       0.29829   0.61739   0.71679  -0.13558
C          C       0.45422   0.10311   0.74309  -0.18768
C          C       0.32552   0.58693   0.70348  -0.10763
C          C       0.30593   0.71696   0.77209  -0.12796
C          C       0.38947   0.61902   0.73428   0.07252
C          C       0.29150   0.96550   0.79842  -0.18298
C          C       0.42581   0.68453   0.77922   0.07114
C          C       0.24688   0.69647   0.75472   0.00256
C          C       0.39604   0.71491   0.78860  -0.16787
C          C       0.22463   0.73764   0.75529   0.04661
C          C       0.33299   0.68274   0.75936   0.10671
C          C       0.17582   0.72187   0.78466  -0.20680
C          C       0.49032   0.71546   0.81229  -0.12632
C          C       0.16015   0.77073   0.75769   0.07773
C          C       0.51761   0.68411   0.80179  -0.11713
C          C       0.19692   0.81731   0.69660  -0.08627
C          C       0.48085   0.61900   0.75211   0.10594
C          C       0.26179   0.85926   0.75800   0.01549
C          C       0.41728   0.58821   0.71849  -0.17294
C          C       0.23461   0.79648   0.66712  -0.01170
C          C       0.50162   0.58001   0.73045  -0.13346
C          C       0.19933   0.63370   0.71863   0.23865
C          C       0.56075   0.58932   0.76817  -0.00597
C          C       0.56703   0.53742   0.73861   0.07691
C          C       0.30943   0.91916   0.80675   0.05816
C          C       0.62255   0.54742   0.74683  -0.18139
C          C       0.37329   0.93457   0.85276   0.23596
C          C       0.62963   0.49797   0.72664   0.08493
C          C       0.58088   0.43843   0.70169  -0.17529
C          C       0.11180   0.77060   0.77693  -0.00056
C          C       0.52500   0.42718   0.69414   0.08909
C          C       0.11593   0.82845   0.78563   0.24446
C          C       0.51870   0.47708   0.71156  -0.19080
C          C       0.62025   0.64777   0.84555   0.24194
C          C       0.68824   0.50708   0.73724   0.00248
C          C       0.69237   0.45268   0.74153   0.24074
C          C       0.47563   0.36496   0.68272  -0.02093
C          C       0.41758   0.36128   0.65116   0.24860
C          C       0.73401   0.56245   0.73706  -0.13995
C          C       0.48630   0.31524   0.71066  -0.11158
C          C       0.79384   0.57943   0.74960   0.10814
C          C       0.82732   0.63964   0.72836  -0.17402
C          C       0.88592   0.66092   0.73708   0.07395
C          C       0.91068   0.61906   0.76362   0.07082
C          C       0.87699   0.55830   0.78832  -0.12071
C          C       0.82115   0.53920   0.78472  -0.12695
C          C       0.96787   0.63955   0.76681  -0.16640
C          C       0.00393   0.70055   0.75734   0.09532
C          C       0.97993   0.74211   0.73616  -0.11718
C          C       0.92212   0.72246   0.72326  -0.12329
C          C       0.06271   0.71597   0.76832  -0.12272
C          C       0.44878   0.25350   0.72859   0.08797
C          C       0.46830   0.21028   0.73647  -0.16459
C          C       0.43850   0.14980   0.76418   0.07185
C          C       0.39422   0.13532   0.81501   0.08825
C          C       0.37230   0.17715   0.79992  -0.13859
C          C       0.39661   0.23444   0.74939  -0.12041
C          C       0.37798   0.08258   0.91994  -0.16883
C          C       0.33385   0.02472   0.84693   0.06419
N          N       0.08959   0.56235   0.00505  -0.35911
N          N       0.36532   0.90677   0.26328  -0.36063
N          N       0.07262   0.84087   0.24113  -0.34641
N          N       0.32078   0.32608   0.06488  -0.35835
N          N       0.64489   0.37370   0.19503  -0.35414
N          N       0.61624   0.65952   0.34173  -0.35372
N          N       0.15615   0.58371   0.68367  -0.35655
N          N       0.42474   0.94636   0.88366  -0.35543
N          N       0.12325   0.87771   0.79490  -0.34388
N          N       0.37185   0.36248   0.62634  -0.36722
N          N       0.69149   0.40597   0.74053  -0.35496
N          N       0.67173   0.69410   0.91371  -0.36179

