data_crystal

_audit_creation_method 'AiiDA-DDEC plugin'

_cell_length_a        30.79151
_cell_length_b        30.57035
_cell_length_c         8.15736

_cell_angle_alpha     84.37478
_cell_angle_beta     121.34198
_cell_angle_gamma     120.21261

_symmetry_space_group_name_Hall 'P 1'
_symmetry_space_group_name_H-M  'P 1'

loop_
_symmetry_equiv_pos_as_xyz
 'x,y,z'

loop_
_atom_site_label
_atom_site_type_symbol
_atom_site_fract_x
_atom_site_fract_y
_atom_site_fract_z
_atom_site_charge
H          H       0.30983   0.73073   0.27984   0.11188
H          H       0.27651   0.57653   0.28651   0.10990
H          H       0.42427   0.69475   0.25211   0.11253
H          H       0.44938   0.64566   0.30476   0.11598
H          H       0.35695   0.79832   0.25580   0.11801
H          H       0.20330   0.55787   0.26124   0.11374
H          H       0.52124   0.64102   0.32173   0.11434
H          H       0.35837   0.87264   0.22472   0.11638
H          H       0.12179   0.48713   0.22481   0.11736
H          H       0.56544   0.59408   0.31435   0.11030
H          H       0.40478   0.96489   0.21852   0.11174
H          H       0.02552   0.44216   0.19841   0.10832
H          H       0.40301   0.44872   0.16796   0.11286
H          H       0.55194   0.96468   0.27526   0.10852
H          H       0.04784   0.58948   0.30480   0.11214
H          H       0.35966   0.49507   0.18088   0.11908
H          H       0.50541   0.87321   0.27751   0.11797
H          H       0.14179   0.63429   0.32258   0.11592
H          H       0.45538   0.41757   0.28534   0.10910
H          H       0.58207   0.03404   0.22646   0.10971
H          H       0.95730   0.54971   0.17392   0.11058
H          H       0.50198   0.37111   0.29416   0.11411
H          H       0.63189   0.12654   0.23699   0.11502
H          H       0.86563   0.50701   0.17583   0.11531
H          H       0.63290   0.50728   0.23223   0.11746
H          H       0.49791   0.13236   0.26024   0.11730
H          H       0.87493   0.36986   0.27853   0.11783
H          H       0.58425   0.55228   0.21107   0.10780
H          H       0.44979   0.04100   0.25888   0.10861
H          H       0.96719   0.41307   0.28531   0.10818
H          H       0.56890   0.36437   0.28468   0.11124
H          H       0.64210   0.20374   0.24976   0.11517
H          H       0.79820   0.44266   0.23121   0.11186
H          H       0.73106   0.42745   0.23618   0.10995
H          H       0.57786   0.30998   0.24745   0.11421
H          H       0.69547   0.27248   0.25295   0.11305
H          H       0.31106   0.72977   0.78428   0.11202
H          H       0.27350   0.57402   0.78544   0.11200
H          H       0.42056   0.68986   0.74204   0.11341
H          H       0.44524   0.64010   0.80168   0.11641
H          H       0.35752   0.79606   0.75166   0.11737
H          H       0.20151   0.55721   0.76437   0.11401
H          H       0.51628   0.63442   0.81639   0.11399
H          H       0.36112   0.87070   0.72830   0.11601
H          H       0.12021   0.48792   0.72699   0.11570
H          H       0.55988   0.58682   0.81239   0.11009
H          H       0.40849   0.96291   0.72443   0.11061
H          H       0.02343   0.44290   0.69826   0.10818
H          H       0.39653   0.44228   0.66314   0.11276
H          H       0.55442   0.96135   0.77685   0.10951
H          H       0.04577   0.59030   0.80073   0.11175
H          H       0.35348   0.48944   0.67201   0.11710
H          H       0.50707   0.86983   0.77879   0.12015
H          H       0.14061   0.63475   0.82152   0.11496
H          H       0.44886   0.41004   0.78064   0.10944
H          H       0.58692   0.03249   0.73990   0.11079
H          H       0.95418   0.54974   0.67225   0.11157
H          H       0.49642   0.36419   0.79069   0.11440
H          H       0.63585   0.12517   0.74747   0.11638
H          H       0.86274   0.50656   0.67455   0.11495
H          H       0.62703   0.50091   0.73053   0.11806
H          H       0.49751   0.12839   0.74949   0.11838
H          H       0.87379   0.37007   0.77894   0.11822
H          H       0.57786   0.54544   0.70894   0.10877
H          H       0.45001   0.03708   0.74772   0.10907
H          H       0.96582   0.41393   0.78622   0.10947
H          H       0.56349   0.35785   0.77698   0.11318
H          H       0.64323   0.20171   0.75048   0.11714
H          H       0.79508   0.44111   0.72942   0.11301
H          H       0.72839   0.42508   0.74109   0.11076
H          H       0.57464   0.30465   0.74344   0.11339
H          H       0.69557   0.27090   0.75508   0.11204
C          C       0.32262   0.70356   0.27920  -0.18745
C          C       0.30283   0.61645   0.28141  -0.18472
C          C       0.38707   0.68288   0.26718  -0.17616
C          C       0.59382   0.40340   0.26736  -0.13631
C          C       0.60300   0.19236   0.25384  -0.13072
C          C       0.80957   0.41413   0.23233  -0.13118
C          C       0.28739   0.65235   0.28484   0.08750
C          C       0.35228   0.63112   0.27152   0.07857
C          C       0.37257   0.71939   0.26980   0.08510
C          C       0.63972   0.41347   0.24926  -0.00746
C          C       0.59327   0.23129   0.25651   0.00251
C          C       0.77151   0.36513   0.23562  -0.00489
C          C       0.36522   0.59167   0.25582  -0.00577
C          C       0.40873   0.77305   0.25677   0.00143
C          C       0.23418   0.63704   0.29000  -0.00546
C          C       0.65365   0.37378   0.24520   0.07959
C          C       0.63184   0.28503   0.24996   0.08646
C          C       0.71868   0.35104   0.24071   0.08854
C          C       0.31910   0.53922   0.21724   0.24252
C          C       0.45734   0.78314   0.24475   0.24943
C          C       0.22700   0.67858   0.30756   0.24715
C          C       0.70380   0.38765   0.24054  -0.18562
C          C       0.61743   0.32201   0.24621  -0.17887
C          C       0.68284   0.30017   0.24803  -0.18426
C          C       0.67799   0.46338   0.23435   0.24340
C          C       0.54433   0.22232   0.26397   0.24496
C          C       0.77886   0.32329   0.22547   0.24841
C          C       0.41696   0.60421   0.27199  -0.13605
C          C       0.39649   0.81066   0.25346  -0.13328
C          C       0.19400   0.58676   0.27629  -0.13160
C          C       0.43735   0.57233   0.25577   0.09340
C          C       0.42747   0.86491   0.24959   0.09532
C          C       0.13944   0.56432   0.27263   0.09801
C          C       0.49537   0.59869   0.28915  -0.12429
C          C       0.40079   0.89290   0.23436  -0.11805
C          C       0.10535   0.50961   0.24150  -0.11977
C          C       0.52020   0.57200   0.28348  -0.13425
C          C       0.42740   0.94533   0.23207  -0.13250
C          C       0.05110   0.48424   0.22757  -0.13365
C          C       0.48838   0.51723   0.24327   0.06919
C          C       0.48253   0.97309   0.24556   0.06390
C          C       0.02818   0.51197   0.24674   0.06966
C          C       0.42992   0.49097   0.20538  -0.12013
C          C       0.50922   0.94506   0.26256  -0.12437
C          C       0.06284   0.56658   0.28175  -0.12273
C          C       0.40488   0.51739   0.21164  -0.11269
C          C       0.48274   0.89265   0.26372  -0.11487
C          C       0.11682   0.59222   0.29424  -0.12024
C          C       0.51540   0.48878   0.24439   0.06586
C          C       0.51160   0.02885   0.24423   0.06516
C          C       0.97105   0.48551   0.23444   0.07018
C          C       0.49294   0.43702   0.26700  -0.13075
C          C       0.56350   0.05503   0.23747  -0.13380
C          C       0.94046   0.51082   0.20184  -0.12619
C          C       0.51983   0.41093   0.27499  -0.12406
C          C       0.59191   0.10779   0.24242  -0.11779
C          C       0.88810   0.48640   0.20002  -0.12483
C          C       0.57082   0.43498   0.26283   0.09323
C          C       0.56989   0.13783   0.25144   0.09350
C          C       0.86285   0.43519   0.22890   0.09774
C          C       0.59378   0.48706   0.24206  -0.10300
C          C       0.51719   0.11153   0.25428  -0.11374
C          C       0.89250   0.40924   0.25590  -0.12081
C          C       0.56630   0.51274   0.23210  -0.12472
C          C       0.48933   0.05884   0.25155  -0.12482
C          C       0.94506   0.43401   0.25900  -0.11843
C          C       0.32232   0.70163   0.78029  -0.18651
C          C       0.30032   0.61378   0.77967  -0.18599
C          C       0.38424   0.67882   0.76096  -0.17753
C          C       0.58881   0.39751   0.76510  -0.13933
C          C       0.60381   0.18960   0.75353  -0.13341
C          C       0.80729   0.41315   0.73181  -0.13312
C          C       0.28630   0.65059   0.78578   0.08725
C          C       0.34888   0.62733   0.76600   0.07850
C          C       0.37152   0.71632   0.76794   0.08763
C          C       0.63590   0.40888   0.75167  -0.00528
C          C       0.59270   0.22763   0.75569   0.00030
C          C       0.77005   0.36401   0.73684  -0.00490
C          C       0.36035   0.58706   0.74701  -0.00379
C          C       0.40894   0.76978   0.75661   0.00437
C          C       0.23356   0.63636   0.79223  -0.00333
C          C       0.65059   0.36988   0.74586   0.07979
C          C       0.63044   0.28165   0.74968   0.08714
C          C       0.71699   0.34896   0.74211   0.08758
C          C       0.31279   0.53493   0.70208   0.24383
C          C       0.45798   0.77936   0.74808   0.24544
C          C       0.22746   0.67845   0.81108   0.24737
C          C       0.70127   0.38488   0.74277  -0.18577
C          C       0.61478   0.31773   0.74465  -0.17775
C          C       0.68186   0.29782   0.74903  -0.18681
C          C       0.67518   0.45962   0.74480   0.24070
C          C       0.54322   0.21747   0.76243   0.24524
C          C       0.77859   0.32289   0.72868   0.24645
C          C       0.41205   0.59875   0.76520  -0.13911
C          C       0.39752   0.80793   0.75288  -0.13370
C          C       0.19271   0.58650   0.77887  -0.13037
C          C       0.43173   0.56629   0.74858   0.09388
C          C       0.42950   0.86223   0.75156   0.09464
C          C       0.13803   0.56476   0.77435   0.09718
C          C       0.48986   0.59214   0.78344  -0.12565
C          C       0.40349   0.89067   0.73778  -0.11643
C          C       0.10357   0.51019   0.74302  -0.12080
C          C       0.51446   0.56504   0.77974  -0.13372
C          C       0.43061   0.94308   0.73605  -0.13264
C          C       0.04911   0.48494   0.72781  -0.13216
C          C       0.48225   0.51030   0.73967   0.07274
C          C       0.48553   0.97049   0.74828   0.06459
C          C       0.02602   0.51268   0.74541   0.07023
C          C       0.42369   0.48449   0.70019  -0.12455
C          C       0.51180   0.94207   0.76483  -0.12652
C          C       0.06092   0.56728   0.77981  -0.12141
C          C       0.39882   0.51136   0.70418  -0.10763
C          C       0.48484   0.88961   0.76608  -0.11484
C          C       0.11524   0.59274   0.79368  -0.11985
C          C       0.50925   0.48169   0.74241   0.06594
C          C       0.51420   0.02617   0.74518   0.06480
C          C       0.96878   0.48603   0.73303   0.07332
C          C       0.48675   0.42980   0.76393  -0.13138
C          C       0.56710   0.05299   0.74427  -0.13465
C          C       0.93765   0.51082   0.70001  -0.13355
C          C       0.51411   0.40410   0.77252  -0.12472
C          C       0.59501   0.10572   0.74795  -0.11744
C          C       0.88529   0.48605   0.69840  -0.12207
C          C       0.56528   0.42853   0.76125   0.08937
C          C       0.57151   0.13501   0.75100   0.09429
C          C       0.86056   0.43484   0.72798   0.09964
C          C       0.58798   0.48059   0.74069  -0.10010
C          C       0.51791   0.10813   0.74822  -0.11600
C          C       0.89074   0.40937   0.75540  -0.12101
C          C       0.56017   0.50593   0.73036  -0.12903
C          C       0.49049   0.05548   0.74578  -0.12493
C          C       0.94329   0.43457   0.75848  -0.12151
N          N       0.27906   0.49713   0.18385  -0.35993
N          N       0.49562   0.78888   0.23004  -0.36557
N          N       0.22407   0.71458   0.32303  -0.36325
N          N       0.71156   0.50330   0.22316  -0.36053
N          N       0.50555   0.21757   0.27355  -0.36156
N          N       0.78157   0.28702   0.21257  -0.36297
N          N       0.27141   0.49315   0.66225  -0.36193
N          N       0.49650   0.78469   0.73572  -0.36290
N          N       0.22538   0.71485   0.82820  -0.36253
N          N       0.70980   0.50001   0.73991  -0.35868
N          N       0.50395   0.21179   0.77116  -0.35938
N          N       0.78240   0.28714   0.71786  -0.36259

