data_crystal

_audit_creation_method 'AiiDA-DDEC plugin'

_cell_length_a        27.24824
_cell_length_b        27.01704
_cell_length_c        10.23505

_cell_angle_alpha     94.05626
_cell_angle_beta     91.92374
_cell_angle_gamma     89.98788

_symmetry_space_group_name_Hall 'P 1'
_symmetry_space_group_name_H-M  'P 1'

loop_
_symmetry_equiv_pos_as_xyz
 'x,y,z'

loop_
_atom_site_label
_atom_site_type_symbol
_atom_site_fract_x
_atom_site_fract_y
_atom_site_fract_z
_atom_site_charge
Zn         Zn      0.49930   0.49912   0.21761   0.68827
Zn         Zn     -0.00095  -0.00056   0.22845   0.68773
Zn         Zn      0.49977   0.50072   0.71096   0.68802
Zn         Zn     -0.00033   0.00121   0.73847   0.68805
H          H       0.89990   0.83290   0.38611   0.11149
H          H       0.10697   0.17286   0.40336   0.11106
H          H       0.17014   0.90246   0.39800   0.11247
H          H       0.82748   0.09978   0.39202   0.11155
H          H       0.84036   0.76458   0.36849   0.11422
H          H       0.16827   0.23827   0.38920   0.11372
H          H       0.23839   0.84309   0.38057   0.11401
H          H       0.75969   0.15900   0.37619   0.11777
H          H       0.77899   0.81865   0.01303   0.11662
H          H       0.21410   0.16941   0.02158   0.12111
H          H       0.17230   0.77562   0.02360   0.11931
H          H       0.82904   0.22290   0.05623   0.11908
H          H       0.84073   0.88682   0.02851   0.11173
H          H       0.15101   0.10336   0.03500   0.11111
H          H       0.10415   0.83702   0.03918   0.11329
H          H       0.89622   0.16096   0.06768   0.11305
H          H       0.37474   0.34068   0.05494   0.11316
H          H       0.61817   0.65067   0.05207   0.11242
H          H       0.65011   0.37044   0.06012   0.11198
H          H       0.34985   0.62462   0.04075   0.11213
H          H       0.30641   0.28040   0.07264   0.11164
H          H       0.68658   0.71208   0.07048   0.11179
H          H       0.71231   0.30397   0.08450   0.10949
H          H       0.28841   0.69289   0.06212   0.11107
H          H       0.25865   0.36459   0.41718   0.11218
H          H       0.74312   0.64636   0.41519   0.11185
H          H       0.64404   0.26413   0.43505   0.11292
H          H       0.35331   0.74120   0.43813   0.11065
H          H       0.32800   0.42328   0.40328   0.11404
H          H       0.67488   0.58567   0.39761   0.11364
H          H       0.58330   0.33134   0.41375   0.11062
H          H       0.41474   0.67365   0.41651   0.11266
H          H       0.71952   0.22476   0.37570   0.06956
H          H       0.27599   0.77566   0.37301   0.07119
H          H       0.77952   0.72118   0.35412   0.06938
H          H       0.21565   0.29162   0.34677   0.06811
H          H       0.30666   0.47199   0.20968   0.12786
H          H       0.69134   0.52655   0.21434   0.12939
H          H       0.52595   0.30575   0.23449   0.12923
H          H       0.47177   0.69344   0.23428   0.12799
H          H       0.31810   0.57077   0.21456   0.13084
H          H       0.68022   0.42890   0.23262   0.13007
H          H       0.42846   0.31789   0.24067   0.13012
H          H       0.56964   0.68212   0.23780   0.12988
H          H       0.94483   0.18784   0.26491   0.12868
H          H       0.05502   0.81234   0.22909   0.12922
H          H       0.81301   0.94368   0.20954   0.12884
H          H       0.18559   0.05559   0.22513   0.13007
H          H       0.04266   0.19117   0.24932   0.12772
H          H       0.95660   0.80842   0.21568   0.12710
H          H       0.81000   0.04278   0.20896   0.12697
H          H       0.18875   0.95623   0.21993   0.12698
H          H       0.90465   0.82731   0.88213   0.11225
H          H       0.10148   0.18006   0.89885   0.11221
H          H       0.16962   0.90126   0.90566   0.11088
H          H       0.83113   0.10428   0.90381   0.11026
H          H       0.84488   0.75900   0.85649   0.11787
H          H       0.15968   0.24794   0.87434   0.11686
H          H       0.23613   0.84024   0.88978   0.11446
H          H       0.76425   0.16459   0.89164   0.11408
H          H       0.77640   0.82528   0.52664   0.11992
H          H       0.21497   0.16950   0.53002   0.11953
H          H       0.17444   0.78020   0.51933   0.11827
H          H       0.82476   0.21810   0.54496   0.11712
H          H       0.83927   0.89237   0.54703   0.11415
H          H       0.15427   0.10200   0.55089   0.11310
H          H       0.10731   0.84279   0.53524   0.11224
H          H       0.89127   0.15498   0.55377   0.11215
H          H       0.36957   0.34581   0.54078   0.11179
H          H       0.62179   0.64772   0.54363   0.11126
H          H       0.65663   0.37447   0.56354   0.11238
H          H       0.34445   0.61984   0.55107   0.11328
H          H       0.30125   0.28569   0.56206   0.11142
H          H       0.68909   0.71047   0.56354   0.11094
H          H       0.71802   0.30781   0.59398   0.11070
H          H       0.28346   0.68858   0.57179   0.11277
H          H       0.26725   0.35970   0.93370   0.11200
H          H       0.73945   0.65263   0.92493   0.11418
H          H       0.63956   0.26223   0.92269   0.10947
H          H       0.35972   0.74763   0.92313   0.11146
H          H       0.33507   0.41940   0.91301   0.11282
H          H       0.67236   0.59055   0.90567   0.11152
H          H       0.57931   0.32967   0.89555   0.11427
H          H       0.41946   0.67852   0.90478   0.11455
H          H       0.71546   0.22153   0.86908   0.06943
H          H       0.28632   0.78633   0.85712   0.06822
H          H       0.77464   0.72817   0.86191   0.06947
H          H       0.22738   0.28324   0.86870   0.06917
H          H       0.30765   0.47258   0.72691   0.12907
H          H       0.69202   0.52852   0.73208   0.12926
H          H       0.52704   0.30619   0.69939   0.12895
H          H       0.47196   0.69426   0.71615   0.12888
H          H       0.31857   0.57133   0.73441   0.13031
H          H       0.68071   0.43051   0.74342   0.13005
H          H       0.42940   0.31776   0.70860   0.13006
H          H       0.56973   0.68308   0.72095   0.13017
H          H       0.94318   0.18838   0.74198   0.12909
H          H       0.05696   0.81348   0.71948   0.12851
H          H       0.81419   0.94373   0.74092   0.12823
H          H       0.18567   0.05883   0.74556   0.12821
H          H       0.04112   0.19248   0.73319   0.12657
H          H       0.95876   0.80895   0.71077   0.12726
H          H       0.81032   0.04249   0.73215   0.12714
H          H       0.18970   0.95935   0.73678   0.12765
C          C       0.87491   0.86511   0.20858   0.07626
C          C       0.12385   0.13343   0.21972   0.07736
C          C       0.13213   0.87423   0.21978   0.07429
C          C       0.86701   0.12567   0.23093   0.07308
C          C       0.87388   0.82958   0.30300  -0.12425
C          C       0.12952   0.17253   0.31768  -0.12756
C          C       0.17068   0.87491   0.31515  -0.12486
C          C       0.82767   0.12629   0.31694  -0.12351
C          C       0.83979   0.79104   0.29320  -0.17401
C          C       0.16441   0.20963   0.30931  -0.17411
C          C       0.20907   0.84097   0.30556  -0.17608
C          C       0.78956   0.16031   0.30869  -0.17906
C          C       0.80450   0.78683   0.18894   0.19252
C          C       0.19545   0.20904   0.20163   0.19332
C          C       0.20995   0.80429   0.20047   0.19474
C          C       0.78974   0.19616   0.21504   0.19592
C          C       0.80563   0.82221   0.09464  -0.15709
C          C       0.19020   0.16971   0.10455  -0.15622
C          C       0.17116   0.80330   0.10594  -0.15644
C          C       0.82929   0.19592   0.13008  -0.15759
C          C       0.84005   0.86049   0.10405  -0.13165
C          C       0.15503   0.13279   0.11285  -0.13265
C          C       0.13304   0.83751   0.11534  -0.13222
C          C       0.86695   0.16140   0.13738  -0.12916
C          C       0.35660   0.38590   0.22884   0.08484
C          C       0.64147   0.61379   0.22392   0.08366
C          C       0.61261   0.35622   0.23625   0.08575
C          C       0.38597   0.64364   0.22842   0.08482
C          C       0.34973   0.34530   0.13550  -0.13454
C          C       0.64550   0.64994   0.13184  -0.13527
C          C       0.64923   0.34745   0.14306  -0.13811
C          C       0.35042   0.65019   0.12781  -0.13828
C          C       0.31149   0.31187   0.14423  -0.11361
C          C       0.68374   0.68415   0.14136  -0.11186
C          C       0.68371   0.31010   0.15552  -0.11301
C          C       0.31618   0.68827   0.13910  -0.11144
C          C       0.27807   0.31832   0.24614   0.04658
C          C       0.71956   0.68353   0.24362   0.04619
C          C       0.68274   0.27967   0.26167   0.04789
C          C       0.31612   0.72114   0.25226   0.04765
C          C       0.28396   0.35956   0.33719  -0.13013
C          C       0.71613   0.64703   0.33444  -0.12540
C          C       0.64524   0.28715   0.35213  -0.13111
C          C       0.35284   0.71598   0.35024  -0.12921
C          C       0.32273   0.39263   0.32925  -0.13723
C          C       0.67785   0.61271   0.32439  -0.13856
C          C       0.61082   0.32480   0.33984  -0.13584
C          C       0.38740   0.67804   0.33822  -0.13737
C          C       0.72040   0.24223   0.28183   0.07185
C          C       0.27782   0.75852   0.27242   0.07122
C          C       0.75888   0.72038   0.25976   0.07364
C          C       0.23866   0.28297   0.26190   0.06838
C          C       0.08657   0.09363   0.22845  -0.06822
C          C       0.91212   0.90565   0.21767  -0.07231
C          C       0.90655   0.08784   0.23486  -0.07162
C          C       0.09234   0.91201   0.22590  -0.07171
C          C       0.41999   0.60035   0.22122  -0.06828
C          C       0.57825   0.39875   0.22822  -0.07258
C          C       0.39918   0.42004   0.22333  -0.07475
C          C       0.59893   0.57911   0.21852  -0.07247
C          C       0.39873   0.55265   0.21661   0.18086
C          C       0.59940   0.44631   0.22353   0.18258
C          C       0.44644   0.39870   0.22705   0.18322
C          C       0.55167   0.60051   0.22104   0.18082
C          C       0.38936   0.47113   0.21787   0.17950
C          C       0.60869   0.52779   0.21712   0.17990
C          C       0.52738   0.38894   0.22883   0.18101
C          C       0.47082   0.60999   0.22329   0.17683
C          C       0.34078   0.49258   0.21322  -0.18361
C          C       0.65724   0.50629   0.21819  -0.18245
C          C       0.50582   0.34024   0.23322  -0.18341
C          C       0.49218   0.65904   0.23002  -0.18102
C          C       0.34657   0.54286   0.21482  -0.18269
C          C       0.65155   0.45634   0.22570  -0.18208
C          C       0.45606   0.34637   0.23500  -0.18260
C          C       0.54200   0.65325   0.23093  -0.18253
C          C       0.89235   0.03738   0.22619   0.18360
C          C       0.10639   0.96227   0.22617   0.18066
C          C       0.96202   0.89169   0.22246   0.18110
C          C       0.03690   0.10777   0.23756   0.18142
C          C       0.95556   0.10504   0.24252   0.18023
C          C       0.04352   0.89476   0.22687   0.18063
C          C       0.89497   0.95502   0.21931   0.18193
C          C       0.10368   0.04429   0.22571   0.18044
C          C       0.96975   0.15676   0.25399  -0.18404
C          C       0.02972   0.84313   0.22628  -0.18494
C          C       0.84383   0.96906   0.21405  -0.18418
C          C       0.15486   0.03019   0.22436  -0.18493
C          C       0.01970   0.15845   0.24730  -0.18383
C          C       0.97956   0.84117   0.22072  -0.18473
C          C       0.84226   0.01965   0.21511  -0.18456
C          C       0.15649   0.97959   0.22256  -0.18416
C          C       0.87631   0.86540   0.71736   0.07149
C          C       0.12331   0.13588   0.72676   0.07350
C          C       0.13355   0.87667   0.72171   0.07609
C          C       0.86622   0.12508   0.72989   0.07658
C          C       0.87704   0.82670   0.80277  -0.12267
C          C       0.12584   0.17787   0.81662  -0.12467
C          C       0.17090   0.87513   0.81995  -0.12342
C          C       0.82935   0.12855   0.82342  -0.12518
C          C       0.84269   0.78840   0.78920  -0.17991
C          C       0.15926   0.21596   0.80348  -0.17866
C          C       0.20856   0.84040   0.81046  -0.17468
C          C       0.79167   0.16309   0.81669  -0.17190
C          C       0.80508   0.78789   0.69105   0.19458
C          C       0.19246   0.21316   0.70047   0.19638
C          C       0.21026   0.80535   0.70173   0.19434
C          C       0.78969   0.19617   0.71602   0.19334
C          C       0.80461   0.82616   0.60454  -0.16107
C          C       0.19010   0.17119   0.61100  -0.15666
C          C       0.17285   0.80685   0.60385  -0.15657
C          C       0.82662   0.19281   0.62297  -0.15485
C          C       0.83958   0.86389   0.61704  -0.13023
C          C       0.15629   0.13340   0.62356  -0.13106
C          C       0.13532   0.84179   0.61335  -0.13168
C          C       0.86392   0.15779   0.62894  -0.13139
C          C       0.35761   0.38636   0.72613   0.08705
C          C       0.64185   0.61512   0.72424   0.08746
C          C       0.61355   0.35724   0.72803   0.08353
C          C       0.38604   0.64404   0.72723   0.08464
C          C       0.34720   0.34850   0.62708  -0.13811
C          C       0.64754   0.64907   0.62734  -0.13772
C          C       0.65315   0.35023   0.64316  -0.13449
C          C       0.34738   0.64768   0.63313  -0.13512
C          C       0.30901   0.31515   0.63807  -0.11326
C          C       0.68516   0.68397   0.63769  -0.11245
C          C       0.68735   0.31284   0.65899  -0.11384
C          C       0.31353   0.68608   0.64365  -0.11353
C          C       0.27994   0.31838   0.74964   0.04892
C          C       0.71869   0.68608   0.74568   0.04891
C          C       0.68303   0.28033   0.75974   0.04713
C          C       0.31737   0.72272   0.74856   0.04893
C          C       0.28934   0.35697   0.84680  -0.13275
C          C       0.71397   0.65132   0.84053  -0.12891
C          C       0.64307   0.28647   0.84293  -0.12692
C          C       0.35660   0.71989   0.84071  -0.12870
C          C       0.32744   0.39055   0.83523  -0.13738
C          C       0.67635   0.61627   0.82961  -0.13811
C          C       0.60903   0.32429   0.82752  -0.13774
C          C       0.39029   0.68118   0.83041  -0.13818
C          C       0.71932   0.24155   0.77998   0.07056
C          C       0.28131   0.76238   0.76620   0.07003
C          C       0.75700   0.72398   0.76337   0.07305
C          C       0.24190   0.28185   0.76937   0.07080
C          C       0.08644   0.09584   0.73702  -0.07123
C          C       0.91344   0.90600   0.72949  -0.07092
C          C       0.90628   0.08791   0.73633  -0.06974
C          C       0.09350   0.91412   0.73125  -0.07092
C          C       0.42029   0.60108   0.72017  -0.07385
C          C       0.57909   0.39966   0.71743  -0.07454
C          C       0.40007   0.42054   0.71748  -0.07161
C          C       0.59937   0.58032   0.71791  -0.07208
C          C       0.39918   0.55341   0.72073   0.18091
C          C       0.60009   0.44754   0.72101   0.18330
C          C       0.44725   0.39915   0.71093   0.18159
C          C       0.55203   0.60158   0.71478   0.18025
C          C       0.39014   0.47179   0.71995   0.17893
C          C       0.60931   0.52915   0.71974   0.18105
C          C       0.52817   0.38974   0.71023   0.18199
C          C       0.47105   0.61091   0.71634   0.18187
C          C       0.34161   0.49325   0.72547  -0.18349
C          C       0.65789   0.50795   0.72857  -0.18321
C          C       0.50677   0.34067   0.70476  -0.18526
C          C       0.49231   0.65987   0.71630  -0.18502
C          C       0.34720   0.54358   0.72825  -0.18301
C          C       0.65216   0.45789   0.73307  -0.18212
C          C       0.45699   0.34651   0.70787  -0.18131
C          C       0.54217   0.65420   0.71780  -0.18214
C          C       0.89270   0.03753   0.73727   0.18202
C          C       0.10717   0.96462   0.73780   0.18147
C          C       0.96347   0.89243   0.72808   0.18350
C          C       0.03643   0.10944   0.73816   0.18389
C          C       0.95501   0.10578   0.73834   0.17983
C          C       0.04486   0.89619   0.72932   0.18064
C          C       0.89603   0.95532   0.73581   0.18070
C          C       0.10391   0.04674   0.74012   0.17950
C          C       0.96849   0.15755   0.73931  -0.18417
C          C       0.03150   0.84427   0.72210  -0.18215
C          C       0.84480   0.96909   0.73798  -0.18317
C          C       0.15519   0.03306   0.74236  -0.18364
C          C       0.01851   0.15970   0.73596  -0.18367
C          C       0.98137   0.84197   0.71858  -0.18734
C          C       0.84276   0.01953   0.73525  -0.18426
C          C       0.15722   0.98244   0.73868  -0.18502
N          N       0.24722   0.76889   0.17895  -0.30386
N          N       0.75320   0.23185   0.19549  -0.30481
N          N       0.23236   0.24391   0.18237  -0.30378
N          N       0.76751   0.75037   0.16991  -0.30878
N          N       0.42416   0.50834   0.21772  -0.37314
N          N       0.57397   0.49048   0.21851  -0.37158
N          N       0.49046   0.42400   0.22440  -0.37355
N          N       0.50774   0.57481   0.21775  -0.37147
N          N       0.99717   0.07578   0.23581  -0.37181
N          N       0.00169   0.92375   0.22636  -0.37153
N          N       0.92388   0.99729   0.22728  -0.37426
N          N       0.07477   0.00231   0.22758  -0.37269
N          N       0.24585   0.76804   0.68122  -0.30861
N          N       0.75387   0.23269   0.69777  -0.30517
N          N       0.22798   0.24901   0.67753  -0.30262
N          N       0.76822   0.75147   0.67009  -0.30563
N          N       0.42468   0.50912   0.71637  -0.37189
N          N       0.57462   0.49163   0.71465  -0.37218
N          N       0.49117   0.42486   0.71114  -0.37307
N          N       0.50812   0.57589   0.71356  -0.37147
N          N       0.99706   0.07715   0.73910  -0.37241
N          N       0.00284   0.92490   0.73383  -0.37394
N          N       0.92460   0.99773   0.73764  -0.37283
N          N       0.07527   0.00447   0.73945  -0.37251

