data_crystal

_audit_creation_method 'AiiDA-DDEC plugin'

_cell_length_a        38.07790
_cell_length_b        38.07220
_cell_length_c         8.11539

_cell_angle_alpha     110.25296
_cell_angle_beta     98.86741
_cell_angle_gamma     120.01104

_symmetry_space_group_name_Hall 'P 1'
_symmetry_space_group_name_H-M  'P 1'

loop_
_symmetry_equiv_pos_as_xyz
 'x,y,z'

loop_
_atom_site_label
_atom_site_type_symbol
_atom_site_fract_x
_atom_site_fract_y
_atom_site_fract_z
_atom_site_charge
H          H       0.76806   0.41559   0.30647   0.11041
H          H       0.58252   0.34711   0.20254   0.11266
H          H       0.64985   0.24395   0.34287   0.10524
H          H       0.22990   0.58104   0.21564   0.10949
H          H       0.41187   0.64926   0.26084   0.11144
H          H       0.34301   0.75414   0.17639   0.10754
H          H       0.76582   0.32871   0.20307   0.10748
H          H       0.66598   0.44069   0.29702   0.11117
H          H       0.55611   0.21554   0.17335   0.10951
H          H       0.22704   0.66457   0.30863   0.10827
H          H       0.33452   0.55997   0.22718   0.10933
H          H       0.43718   0.78170   0.32300   0.10919
H          H       0.82553   0.33306   0.14893   0.11724
H          H       0.65352   0.49215   0.25465   0.11588
H          H       0.49960   0.15007   0.17279   0.11534
H          H       0.16386   0.65457   0.32806   0.11690
H          H       0.34386   0.50364   0.20116   0.11844
H          H       0.49259   0.84659   0.32771   0.11402
H          H       0.89952   0.37581   0.14271   0.10914
H          H       0.60966   0.52183   0.24165   0.10566
H          H       0.46997   0.07727   0.18458   0.10410
H          H       0.09019   0.60990   0.33216   0.10843
H          H       0.38733   0.47334   0.19185   0.10778
H          H       0.52297   0.91969   0.31726   0.10711
H          H       0.90390   0.49905   0.31766   0.10623
H          H       0.50152   0.40029   0.22437   0.10770
H          H       0.60088   0.11136   0.35066   0.10987
H          H       0.09735   0.49533   0.23335   0.10721
H          H       0.50009   0.60403   0.28993   0.10910
H          H       0.39271   0.88767   0.16203   0.10976
H          H       0.83091   0.45686   0.32515   0.11457
H          H       0.54535   0.37170   0.24046   0.11667
H          H       0.63000   0.18269   0.33350   0.11674
H          H       0.17119   0.54020   0.23777   0.11773
H          H       0.45592   0.63327   0.29179   0.11971
H          H       0.36291   0.81566   0.17437   0.11584
H          H       0.94740   0.51417   0.16616   0.10445
H          H       0.47448   0.43294   0.28490   0.10113
H          H       0.56606   0.03785   0.20683   0.10797
H          H       0.04743   0.47409   0.34297   0.10455
H          H       0.52521   0.56787   0.18148   0.10445
H          H       0.42745   0.96068   0.30394   0.10420
H          H       0.02292   0.55931   0.18572   0.10456
H          H       0.43169   0.46279   0.28855   0.10444
H          H       0.53501   0.96259   0.19087   0.10331
H          H       0.97141   0.42814   0.31720   0.10430
H          H       0.56849   0.53849   0.17987   0.10548
H          H       0.45831   0.03576   0.31841   0.10065
H          H       0.77074   0.42028   0.80053   0.11073
H          H       0.58441   0.34563   0.68823   0.11282
H          H       0.65729   0.24802   0.84490   0.10763
H          H       0.23679   0.58858   0.74502   0.10835
H          H       0.40736   0.63946   0.68663   0.10784
H          H       0.35001   0.75709   0.67096   0.10623
H          H       0.77195   0.33530   0.70066   0.11012
H          H       0.66796   0.44301   0.81881   0.11160
H          H       0.56284   0.21871   0.68293   0.10730
H          H       0.22982   0.66690   0.76856   0.10693
H          H       0.34497   0.57145   0.80104   0.10651
H          H       0.44354   0.78357   0.82451   0.11213
H          H       0.83219   0.34187   0.65002   0.11799
H          H       0.65640   0.49503   0.79058   0.11705
H          H       0.50624   0.15281   0.67077   0.11437
H          H       0.17039   0.66223   0.81627   0.11670
H          H       0.35461   0.51568   0.79740   0.11342
H          H       0.50027   0.85073   0.83437   0.11460
H          H       0.90629   0.38644   0.64790   0.10821
H          H       0.61195   0.52409   0.77268   0.10515
H          H       0.47579   0.07984   0.68260   0.10690
H          H       0.09690   0.62031   0.82361   0.10748
H          H       0.39696   0.48408   0.78559   0.10200
H          H       0.52936   0.92341   0.82192   0.10375
H          H       0.90751   0.50770   0.82237   0.10636
H          H       0.49981   0.39630   0.69863   0.10812
H          H       0.60630   0.11361   0.85960   0.10938
H          H       0.10096   0.50436   0.73838   0.10608
H          H       0.49179   0.59101   0.68941   0.10419
H          H       0.39846   0.88963   0.66450   0.10983
H          H       0.83423   0.46369   0.82527   0.11569
H          H       0.54412   0.36781   0.71673   0.12060
H          H       0.63672   0.18592   0.84704   0.11583
H          H       0.17394   0.54616   0.73414   0.11745
H          H       0.45087   0.62345   0.70895   0.11631
H          H       0.36991   0.81856   0.68414   0.11598
H          H       0.95269   0.52512   0.67050   0.10470
H          H       0.46705   0.42239   0.71796   0.10485
H          H       0.56977   0.03865   0.69395   0.10803
H          H       0.05250   0.48482   0.84600   0.10355
H          H       0.53263   0.57499   0.74736   0.10623
H          H       0.43348   0.96316   0.80870   0.10720
H          H       0.02833   0.57069   0.69362   0.10562
H          H       0.42363   0.45144   0.71222   0.10546
H          H       0.53902   0.96351   0.68085   0.10087
H          H       0.97658   0.43890   0.82084   0.10542
H          H       0.57502   0.54439   0.74055   0.10557
H          H       0.46365   0.03793   0.81881   0.10118
C          C       0.68621   0.37433   0.25446  -0.06014
C          C       0.62230   0.31133   0.25920  -0.06113
C          C       0.68765   0.31296   0.27783  -0.06550
C          C       0.30916   0.62142   0.24024  -0.06044
C          C       0.37205   0.68589   0.23802  -0.05987
C          C       0.30725   0.68429   0.23780  -0.06242
C          C       0.70976   0.35511   0.27030   0.08319
C          C       0.64272   0.35359   0.25025   0.08133
C          C       0.64380   0.29019   0.27172   0.07816
C          C       0.28589   0.64145   0.24006   0.07850
C          C       0.35246   0.64308   0.24198   0.07575
C          C       0.35035   0.70720   0.23565   0.07937
C          C       0.75429   0.38013   0.27698  -0.16839
C          C       0.61741   0.37168   0.23590  -0.15563
C          C       0.62523   0.24821   0.28697  -0.16510
C          C       0.24226   0.61598   0.24178  -0.16626
C          C       0.37857   0.62568   0.24834  -0.15809
C          C       0.36800   0.74955   0.22398  -0.16502
C          C       0.77905   0.36451   0.24119  -0.08171
C          C       0.63146   0.41459   0.26218  -0.08410
C          C       0.58213   0.21362   0.23459  -0.08652
C          C       0.21626   0.62977   0.27807  -0.08840
C          C       0.36731   0.58494   0.24001  -0.09075
C          C       0.41077   0.78386   0.26926  -0.08672
C          C       0.84322   0.36972   0.18887  -0.11067
C          C       0.62017   0.47216   0.24903  -0.12266
C          C       0.52172   0.14137   0.21135  -0.12858
C          C       0.14913   0.61958   0.30741  -0.11791
C          C       0.37812   0.52548   0.21913  -0.12096
C          C       0.47083   0.85587   0.29177  -0.12024
C          C       0.88494   0.39393   0.18647  -0.13854
C          C       0.59509   0.48881   0.24065  -0.13348
C          C       0.50517   0.10047   0.21951  -0.13476
C          C       0.10738   0.59410   0.30719  -0.13334
C          C       0.40309   0.50857   0.21491  -0.13296
C          C       0.48780   0.89696   0.28486  -0.13849
C          C       0.90809   0.44111   0.23387   0.07520
C          C       0.55176   0.46409   0.23326   0.06560
C          C       0.53286   0.08800   0.26662   0.07379
C          C       0.08722   0.54860   0.27877   0.07537
C          C       0.44761   0.53588   0.23848   0.06910
C          C       0.46052   0.91023   0.24223   0.07546
C          C       0.88698   0.46263   0.28053  -0.13531
C          C       0.53484   0.42124   0.23139  -0.13242
C          C       0.57821   0.11913   0.30868  -0.12859
C          C       0.11176   0.53038   0.25558  -0.13345
C          C       0.46565   0.58129   0.26725  -0.13070
C          C       0.41515   0.87942   0.20154  -0.13139
C          C       0.84553   0.43864   0.28482  -0.11566
C          C       0.55973   0.40447   0.23907  -0.11257
C          C       0.59486   0.16001   0.30126  -0.11052
C          C       0.15363   0.55580   0.25628  -0.11922
C          C       0.44064   0.59813   0.26963  -0.11252
C          C       0.39808   0.83819   0.20682  -0.11116
C          C       0.82261   0.39156   0.24021   0.09417
C          C       0.60332   0.42966   0.24904   0.09551
C          C       0.56690   0.17201   0.25043   0.09717
C          C       0.17318   0.60100   0.27986   0.09887
C          C       0.39602   0.57050   0.24466   0.09326
C          C       0.42568   0.82556   0.25457   0.09616
C          C       0.96948   0.50585   0.20914  -0.13535
C          C       0.48580   0.46196   0.25770  -0.12531
C          C       0.53613   0.02177   0.23251  -0.12805
C          C       0.02556   0.48267   0.30005  -0.13188
C          C       0.51387   0.53856   0.20710  -0.12749
C          C       0.45746   0.97681   0.27879  -0.12474
C          C       0.01254   0.53166   0.22168  -0.12411
C          C       0.46102   0.47903   0.25937  -0.12908
C          C       0.51845   0.97885   0.22352  -0.13063
C          C       0.98225   0.45642   0.28493  -0.12696
C          C       0.53873   0.52142   0.20555  -0.13042
C          C       0.47511   0.01970   0.28748  -0.13190
C          C       0.04198   0.52113   0.26941   0.05309
C          C       0.47416   0.51791   0.23441   0.05004
C          C       0.47870   0.95512   0.24659   0.06229
C          C       0.95316   0.46752   0.24041   0.05893
C          C       0.52554   0.48245   0.23082   0.05808
C          C       0.51496   0.04350   0.26514   0.06054
C          C       0.70783   0.41477   0.23418   0.25806
C          C       0.58044   0.29270   0.27143   0.25305
C          C       0.70854   0.29123   0.29121   0.25351
C          C       0.28709   0.57867   0.24382   0.25190
C          C       0.41381   0.70551   0.22402   0.25052
C          C       0.28639   0.70660   0.23803   0.25236
C          C       0.68965   0.37745   0.75361  -0.05824
C          C       0.62666   0.31314   0.75724  -0.06418
C          C       0.69299   0.31693   0.77615  -0.06503
C          C       0.31328   0.62401   0.73778  -0.06069
C          C       0.37631   0.68657   0.72616  -0.06212
C          C       0.31329   0.68791   0.73744  -0.06263
C          C       0.71411   0.35919   0.76882   0.08167
C          C       0.64604   0.35522   0.74770   0.08082
C          C       0.64926   0.29314   0.77193   0.07942
C          C       0.29093   0.64509   0.74017   0.07841
C          C       0.35581   0.64387   0.73174   0.08250
C          C       0.35579   0.70919   0.72914   0.07740
C          C       0.75839   0.38526   0.77373  -0.16411
C          C       0.61955   0.37199   0.73314  -0.15829
C          C       0.63195   0.25147   0.78938  -0.16863
C          C       0.24780   0.62129   0.74763  -0.16943
C          C       0.37933   0.62342   0.72414  -0.15349
C          C       0.37451   0.75207   0.72051  -0.16422
C          C       0.78401   0.37083   0.73829  -0.08607
C          C       0.63307   0.41544   0.77106  -0.08619
C          C       0.58909   0.21680   0.74133  -0.08475
C          C       0.22047   0.63428   0.76234  -0.08363
C          C       0.37212   0.58875   0.76112  -0.08634
C          C       0.41758   0.78638   0.77076  -0.08901
C          C       0.84904   0.37840   0.68895  -0.11436
C          C       0.62197   0.47363   0.77115  -0.12454
C          C       0.52822   0.14426   0.71339  -0.12313
C          C       0.15489   0.62743   0.79860  -0.11336
C          C       0.38473   0.53216   0.77318  -0.11971
C          C       0.47791   0.85926   0.79694  -0.12686
C          C       0.89079   0.40361   0.68829  -0.13192
C          C       0.59659   0.48981   0.76030  -0.13413
C          C       0.51113   0.10315   0.72022  -0.13737
C          C       0.11328   0.60357   0.80200  -0.13635
C          C       0.40869   0.51408   0.76497  -0.13469
C          C       0.49425   0.90025   0.78940  -0.13562
C          C       0.91299   0.45065   0.73486   0.07327
C          C       0.55190   0.46281   0.73489   0.06428
C          C       0.53839   0.09028   0.76776   0.07534
C          C       0.09225   0.55843   0.77887   0.07454
C          C       0.44814   0.53464   0.73600   0.06341
C          C       0.46646   0.91281   0.74477   0.07140
C          C       0.89109   0.47119   0.78239  -0.13548
C          C       0.53410   0.41842   0.71827  -0.13390
C          C       0.58408   0.12173   0.81572  -0.12771
C          C       0.11594   0.53920   0.75760  -0.13072
C          C       0.46203   0.57427   0.71514  -0.13221
C          C       0.42124   0.88183   0.70511  -0.12469
C          C       0.84955   0.44624   0.78494  -0.11941
C          C       0.55927   0.40200   0.72782  -0.11199
C          C       0.60137   0.16302   0.81071  -0.11383
C          C       0.15754   0.56296   0.75430  -0.11992
C          C       0.43832   0.59254   0.72376  -0.11523
C          C       0.40486   0.84096   0.71268  -0.11235
C          C       0.82743   0.39909   0.73837   0.09769
C          C       0.60413   0.42945   0.75531   0.09771
C          C       0.57371   0.17511   0.75671   0.09797
C          C       0.17793   0.60765   0.77188   0.09504
C          C       0.39878   0.57178   0.75230   0.09762
C          C       0.43280   0.82857   0.75924   0.09814
C          C       0.97450   0.51638   0.71214  -0.13467
C          C       0.48179   0.45551   0.72031  -0.12429
C          C       0.54055   0.02307   0.72482  -0.12943
C          C       0.03062   0.49330   0.80236  -0.13165
C          C       0.51753   0.54120   0.73954  -0.12408
C          C       0.46294   0.97900   0.77961  -0.12476
C          C       0.01771   0.54249   0.72610  -0.12903
C          C       0.45697   0.47253   0.71995  -0.12607
C          C       0.52303   0.98028   0.71674  -0.13447
C          C       0.98738   0.46704   0.78757  -0.12385
C          C       0.54204   0.52374   0.73682  -0.12680
C          C       0.48028   0.02171   0.78666  -0.13171
C          C       0.04706   0.53174   0.77150   0.05635
C          C       0.47418   0.51617   0.73149   0.05806
C          C       0.48400   0.95720   0.74542   0.06251
C          C       0.95805   0.47779   0.74182   0.05801
C          C       0.52520   0.48048   0.72911   0.05387
C          C       0.51985   0.04522   0.76190   0.06081
C          C       0.71027   0.41832   0.73573   0.25634
C          C       0.58440   0.29358   0.76659   0.25439
C          C       0.71463   0.29578   0.78627   0.25384
C          C       0.29060   0.58121   0.74073   0.25321
C          C       0.41796   0.70533   0.71115   0.25117
C          C       0.29507   0.71307   0.75202   0.25482
N          N       0.72685   0.44759   0.21538  -0.36839
N          N       0.54638   0.27897   0.28525  -0.36528
N          N       0.72374   0.27145   0.30098  -0.36467
N          N       0.26757   0.54359   0.24592  -0.36122
N          N       0.44771   0.72010   0.20945  -0.35822
N          N       0.27101   0.72667   0.24009  -0.36166
N          N       0.72855   0.45174   0.72034  -0.37106
N          N       0.55000   0.27875   0.77639  -0.36245
N          N       0.73016   0.27613   0.79216  -0.36602
N          N       0.27102   0.54666   0.74730  -0.35947
N          N       0.45218   0.71973   0.69873  -0.36322
N          N       0.28236   0.73595   0.76806  -0.36385

