data_crystal

_audit_creation_method 'AiiDA-DDEC plugin'

_cell_length_a        30.70896
_cell_length_b        30.42721
_cell_length_c         8.15418

_cell_angle_alpha     93.61199
_cell_angle_beta     119.10308
_cell_angle_gamma     119.56763

_symmetry_space_group_name_Hall 'P 1'
_symmetry_space_group_name_H-M  'P 1'

loop_
_symmetry_equiv_pos_as_xyz
 'x,y,z'

loop_
_atom_site_label
_atom_site_type_symbol
_atom_site_fract_x
_atom_site_fract_y
_atom_site_fract_z
_atom_site_charge
H          H       0.80065   0.43888   0.25060   0.10481
H          H       0.56681   0.35502   0.16526   0.10909
H          H       0.65100   0.21428   0.22646   0.10835
H          H       0.23413   0.57642   0.31360   0.10327
H          H       0.46090   0.66127   0.35710   0.11221
H          H       0.36542   0.79556   0.28912   0.10979
H          H       0.80308   0.33981   0.18215   0.10795
H          H       0.67000   0.46793   0.23374   0.11151
H          H       0.55400   0.20939   0.26461   0.10808
H          H       0.20533   0.65941   0.24097   0.10627
H          H       0.34584   0.54289   0.18378   0.11025
H          H       0.47125   0.81191   0.27846   0.10714
H          H       0.88040   0.35342   0.15797   0.11976
H          H       0.64973   0.53245   0.21712   0.11572
H          H       0.48163   0.12568   0.24346   0.12046
H          H       0.12084   0.64233   0.21658   0.11963
H          H       0.35025   0.47287   0.09400   0.11898
H          H       0.53667   0.89275   0.28898   0.11781
H          H       0.97542   0.41181   0.18010   0.10881
H          H       0.59204   0.56667   0.21915   0.10491
H          H       0.44432   0.03395   0.24422   0.10978
H          H       0.02718   0.58458   0.20107   0.11016
H          H       0.40634   0.43725   0.08855   0.11059
H          H       0.57149   0.98359   0.28365   0.10598
H          H       0.97285   0.55038   0.29596   0.10354
H          H       0.47540   0.42017   0.26365   0.10933
H          H       0.59942   0.05463   0.28596   0.10942
H          H       0.07179   0.47129   0.33307   0.11250
H          H       0.57505   0.60305   0.40459   0.10798
H          H       0.41684   0.96055   0.25358   0.10862
H          H       0.87721   0.49207   0.26396   0.11687
H          H       0.52968   0.38438   0.24810   0.11607
H          H       0.63819   0.14653   0.29616   0.11885
H          H       0.16269   0.52689   0.33704   0.11271
H          H       0.51950   0.63871   0.40832   0.11747
H          H       0.38299   0.87045   0.26121   0.11953
H          H       0.77694   0.42831   0.74720   0.10934
H          H       0.54566   0.33930   0.69220   0.11077
H          H       0.63262   0.20142   0.70783   0.10726
H          H       0.20422   0.56192   0.78437   0.10582
H          H       0.43721   0.64745   0.86231   0.11406
H          H       0.34323   0.78249   0.76960   0.11217
H          H       0.78095   0.33002   0.68084   0.10817
H          H       0.64387   0.45068   0.73356   0.11001
H          H       0.54248   0.19612   0.78717   0.10612
H          H       0.18850   0.65402   0.77075   0.10833
H          H       0.31956   0.52867   0.64877   0.10945
H          H       0.45491   0.79881   0.80314   0.10660
H          H       0.85994   0.34458   0.66808   0.11883
H          H       0.62590   0.51494   0.70972   0.11778
H          H       0.47774   0.11644   0.79236   0.11864
H          H       0.10179   0.63656   0.74076   0.11897
H          H       0.32583   0.45977   0.57109   0.11761
H          H       0.52443   0.87950   0.82003   0.11812
H          H       0.95366   0.40307   0.68500   0.11381
H          H       0.57063   0.55252   0.70674   0.10671
H          H       0.44123   0.02460   0.79208   0.10426
H          H       0.00646   0.57808   0.71393   0.10570
H          H       0.38220   0.42435   0.56702   0.10951
H          H       0.56255   0.97118   0.81489   0.11102
H          H       0.94631   0.53976   0.77932   0.10692
H          H       0.44914   0.40855   0.74882   0.10632
H          H       0.57939   0.03681   0.73716   0.10799
H          H       0.04508   0.45998   0.81451   0.10917
H          H       0.54990   0.59054   0.87268   0.10855
H          H       0.39678   0.94485   0.69729   0.11127
H          H       0.85256   0.48149   0.75829   0.11612
H          H       0.50332   0.37062   0.74950   0.11690
H          H       0.61629   0.12856   0.74165   0.11790
H          H       0.13889   0.51769   0.83686   0.11790
H          H       0.49431   0.62586   0.87816   0.11730
H          H       0.35836   0.85347   0.69888   0.11992
C          C       0.69856   0.38923   0.20792  -0.05749
C          C       0.61942   0.30911   0.20521  -0.05531
C          C       0.70311   0.31191   0.23027  -0.05513
C          C       0.32451   0.62182   0.28385  -0.06801
C          C       0.40469   0.70582   0.30689  -0.06401
C          C       0.32045   0.69991   0.29040  -0.06266
C          C       0.72914   0.36473   0.22171   0.07393
C          C       0.64354   0.36242   0.19801   0.08131
C          C       0.64821   0.28292   0.22322   0.07427
C          C       0.29495   0.64593   0.28845   0.07931
C          C       0.37987   0.65093   0.29711   0.08413
C          C       0.37483   0.73062   0.29617   0.07514
C          C       0.78481   0.39675   0.22996  -0.15634
C          C       0.61030   0.38462   0.18679  -0.16716
C          C       0.62639   0.22954   0.23545  -0.15677
C          C       0.24212   0.61392   0.29275  -0.17560
C          C       0.41369   0.62950   0.30476  -0.15774
C          C       0.39437   0.78450   0.29016  -0.15619
C          C       0.81734   0.38165   0.20825  -0.09298
C          C       0.62769   0.43674   0.21527  -0.06989
C          C       0.58065   0.19682   0.25646  -0.09655
C          C       0.20114   0.62370   0.26975  -0.08645
C          C       0.39347   0.57641   0.24638  -0.08696
C          C       0.44113   0.82078   0.28000  -0.09347
C          C       0.90142   0.39693   0.19097  -0.12591
C          C       0.61137   0.50787   0.22702  -0.11440
C          C       0.50751   0.11000   0.25217  -0.11730
C          C       0.10979   0.60454   0.24124  -0.11280
C          C       0.39977   0.50151   0.16381  -0.11435
C          C       0.51026   0.90777   0.27972  -0.12276
C          C       0.95546   0.43024   0.20537  -0.12249
C          C       0.57924   0.52736   0.23049  -0.13371
C          C       0.48602   0.05751   0.25056  -0.12901
C          C       0.05696   0.57187   0.23343  -0.13659
C          C       0.43147   0.48137   0.16118  -0.12946
C          C       0.52980   0.95945   0.27662  -0.13153
C          C       0.98322   0.48650   0.24478   0.06080
C          C       0.52865   0.49614   0.23910   0.06108
C          C       0.51784   0.03534   0.26128   0.06873
C          C       0.04046   0.52211   0.26051   0.07836
C          C       0.49512   0.51724   0.24478   0.06879
C          C       0.49670   0.98028   0.26455   0.06099
C          C       0.95265   0.50704   0.26303  -0.11969
C          C       0.51194   0.44419   0.24537  -0.12617
C          C       0.57294   0.06946   0.27680  -0.12978
C          C       0.08084   0.50768   0.30039  -0.13322
C          C       0.52551   0.57432   0.33391  -0.13355
C          C       0.44345   0.94621   0.25903  -0.12722
C          C       0.89854   0.47391   0.24748  -0.12305
C          C       0.54321   0.42408   0.23821  -0.12325
C          C       0.59500   0.12199   0.28085  -0.10964
C          C       0.13327   0.53992   0.30636  -0.10795
C          C       0.49397   0.59447   0.33737  -0.12193
C          C       0.42402   0.89460   0.26382  -0.11293
C          C       0.87213   0.41803   0.21578   0.10686
C          C       0.59346   0.45532   0.22686   0.09466
C          C       0.56221   0.14352   0.26485   0.09209
C          C       0.14879   0.58900   0.27424   0.08796
C          C       0.42994   0.55850   0.25104   0.10003
C          C       0.45698   0.87381   0.27300   0.09698
C          C       0.72444   0.44162   0.19617   0.24891
C          C       0.56526   0.28336   0.20008   0.25083
C          C       0.73364   0.28709   0.25916   0.24924
C          C       0.29469   0.56611   0.26174   0.25197
C          C       0.46038   0.73474   0.32190   0.25146
C          C       0.29100   0.72499   0.27886   0.25192
C          C       0.67530   0.37623   0.71459  -0.06507
C          C       0.59804   0.29370   0.70878  -0.06530
C          C       0.68321   0.30038   0.73003  -0.06411
C          C       0.29970   0.60847   0.77884  -0.06082
C          C       0.38013   0.69110   0.79684  -0.05582
C          C       0.29783   0.68759   0.78595  -0.05732
C          C       0.70703   0.35332   0.72265   0.08224
C          C       0.62112   0.34771   0.70892   0.07931
C          C       0.62877   0.26965   0.72324   0.07459
C          C       0.27069   0.63340   0.78163   0.07334
C          C       0.35496   0.63659   0.79018   0.08151
C          C       0.35211   0.71740   0.79006   0.07645
C          C       0.76152   0.38626   0.72720  -0.17438
C          C       0.58748   0.36888   0.70477  -0.15956
C          C       0.60903   0.21599   0.72952  -0.16065
C          C       0.21647   0.60197   0.78172  -0.15296
C          C       0.38897   0.61522   0.79855  -0.16648
C          C       0.37301   0.77111   0.78202  -0.15704
C          C       0.79459   0.37162   0.70664  -0.08912
C          C       0.60259   0.42003   0.72095  -0.08745
C          C       0.56679   0.18317   0.76254  -0.09779
C          C       0.17982   0.61532   0.77878  -0.09795
C          C       0.36827   0.56246   0.72520  -0.07706
C          C       0.42283   0.80739   0.78437  -0.09350
C          C       0.87931   0.38759   0.69433  -0.11173
C          C       0.58725   0.49180   0.71958  -0.11332
C          C       0.49953   0.09853   0.77811  -0.12084
C          C       0.08857   0.59718   0.75312  -0.12979
C          C       0.37527   0.48844   0.64004  -0.11736
C          C       0.49673   0.89421   0.79482  -0.11947
C          C       0.93258   0.42091   0.70557  -0.12777
C          C       0.55624   0.51309   0.71910  -0.13997
C          C       0.47850   0.04619   0.77560  -0.13276
C          C       0.03468   0.56395   0.73930  -0.12379
C          C       0.40721   0.46852   0.63845  -0.13123
C          C       0.51825   0.94621   0.79216  -0.13145
C          C       0.95863   0.47670   0.73746   0.07553
C          C       0.50465   0.48302   0.72356   0.06802
C          C       0.50638   0.02213   0.76170   0.06098
C          C       0.01590   0.51263   0.75431   0.06599
C          C       0.47092   0.50458   0.72258   0.06905
C          C       0.48386   0.96677   0.76206   0.06980
C          C       0.92745   0.49684   0.75287  -0.13409
C          C       0.48645   0.43114   0.73289  -0.13236
C          C       0.55677   0.05369   0.75090  -0.13034
C          C       0.05544   0.49750   0.79005  -0.12014
C          C       0.50072   0.56161   0.80657  -0.13100
C          C       0.42585   0.93141   0.72832  -0.13296
C          C       0.87419   0.46368   0.74180  -0.10539
C          C       0.51738   0.40979   0.73409  -0.11593
C          C       0.57772   0.10597   0.75209  -0.11393
C          C       0.10896   0.53031   0.80259  -0.11383
C          C       0.46901   0.58158   0.81024  -0.11538
C          C       0.40392   0.87928   0.72981  -0.10752
C          C       0.84906   0.40815   0.71463   0.09075
C          C       0.56838   0.43949   0.72551   0.08984
C          C       0.54919   0.12958   0.76467   0.09627
C          C       0.12628   0.58054   0.77880   0.10535
C          C       0.40531   0.54539   0.72820   0.09892
C          C       0.43972   0.85968   0.76782   0.09384
C          C       0.70032   0.42902   0.70566   0.25191
C          C       0.54221   0.26420   0.69338   0.24517
C          C       0.71550   0.27731   0.75690   0.25129
C          C       0.27253   0.55389   0.76951   0.24626
C          C       0.43366   0.71713   0.79901   0.24968
C          C       0.27150   0.71508   0.78516   0.25126
N          N       0.74787   0.48477   0.18667  -0.35554
N          N       0.52169   0.26410   0.20145  -0.35014
N          N       0.75847   0.26590   0.28879  -0.35487
N          N       0.26683   0.51976   0.23725  -0.36255
N          N       0.50628   0.75732   0.33384  -0.36912
N          N       0.26747   0.74686   0.26539  -0.35674
N          N       0.72347   0.47224   0.69685  -0.35459
N          N       0.49605   0.24055   0.68089  -0.36300
N          N       0.74181   0.25777   0.78231  -0.35843
N          N       0.24909   0.50863   0.75883  -0.35754
N          N       0.47722   0.73626   0.79805  -0.35130
N          N       0.25176   0.73984   0.78388  -0.35067

