data_crystal

_audit_creation_method 'AiiDA-DDEC plugin'

_cell_length_a        18.75091
_cell_length_b        18.95091
_cell_length_c         8.02406

_cell_angle_alpha     111.32583
_cell_angle_beta     91.34092
_cell_angle_gamma     119.18256

_symmetry_space_group_name_Hall 'P 1'
_symmetry_space_group_name_H-M  'P 1'

loop_
_symmetry_equiv_pos_as_xyz
 'x,y,z'

loop_
_atom_site_label
_atom_site_type_symbol
_atom_site_fract_x
_atom_site_fract_y
_atom_site_fract_z
_atom_site_charge
H          H       0.62187   0.13087   0.23931   0.11357
H          H       0.85837   0.48965   0.25462   0.10863
H          H       0.49686   0.35484   0.14417   0.11445
H          H       0.47015   0.14028   0.35035   0.10618
H          H       0.88225   0.34195   0.26511   0.11024
H          H       0.65458   0.54275   0.36012   0.11618
H          H       0.62889   0.65937   0.46579   0.11745
H          H       0.37569   0.02403   0.42538   0.12152
H          H       0.02024   0.37558   0.30358   0.12182
H          H       0.53967   0.72110   0.45397   0.10527
H          H       0.31185   0.87105   0.40232   0.11038
H          H       0.16805   0.46507   0.30014   0.10755
H          H       0.34972   0.46790   0.01772   0.11069
H          H       0.49539   0.84249   0.12033   0.10157
H          H       0.11437   0.63842   0.16881   0.10841
H          H       0.43710   0.40547   0.03112   0.11744
H          H       0.56200   0.99604   0.15331   0.11441
H          H       0.96904   0.55272   0.18288   0.11659
H          H       0.27248   0.51475   0.21908   0.10506
H          H       0.48176   0.76051   0.25525   0.10283
H          H       0.23789   0.72705   0.24687   0.10751
H          H       0.62554   0.12817   0.73536   0.11370
H          H       0.86224   0.48541   0.74593   0.10878
H          H       0.50329   0.35527   0.64632   0.11642
H          H       0.47578   0.13920   0.85606   0.10612
H          H       0.88964   0.34339   0.77741   0.11118
H          H       0.66023   0.54204   0.87822   0.11739
H          H       0.62928   0.65663   0.99213   0.11605
H          H       0.37923   0.01986   0.92043   0.11856
H          H       0.02709   0.37585   0.80861   0.12044
H          H       0.53966   0.71707   0.96990   0.10574
H          H       0.31656   0.86666   0.89495   0.10978
H          H       0.17444   0.46518   0.80377   0.10702
H          H       0.36216   0.46945   0.50469   0.11070
H          H       0.50289   0.84191   0.61945   0.10113
H          H       0.11989   0.63762   0.67025   0.10766
H          H       0.45062   0.40891   0.52570   0.11484
H          H       0.56692   0.99480   0.64934   0.11391
H          H       0.97509   0.55237   0.68709   0.11651
H          H       0.27820   0.51320   0.72013   0.10733
H          H       0.48794   0.75788   0.75332   0.10481
H          H       0.24391   0.72453   0.73847   0.10720
C          C       0.70855   0.29365   0.27456  -0.06020
C          C       0.70120   0.41156   0.23546  -0.05575
C          C       0.57497   0.28578   0.24519  -0.06756
C          C       0.62037   0.24616   0.26487   0.07811
C          C       0.75065   0.37590   0.25823   0.08026
C          C       0.61448   0.36913   0.23315   0.08114
C          C       0.58300   0.15961   0.26884  -0.16205
C          C       0.83869   0.42612   0.25906  -0.16018
C          C       0.56333   0.40463   0.21166  -0.16751
C          C       0.50867   0.11205   0.30728  -0.09164
C          C       0.89754   0.40381   0.25818  -0.07584
C          C       0.59030   0.49261   0.27713  -0.08137
C          C       0.75338   0.25603   0.31048   0.24927
C          C       0.74057   0.49048   0.20582   0.24787
C          C       0.48750   0.24415   0.23846   0.24823
C          C       0.56727   0.61743   0.36855  -0.11750
C          C       0.40191   0.98392   0.35869  -0.11811
C          C       0.04127   0.43369   0.27485  -0.11606
C          C       0.51746   0.65217   0.36072  -0.13891
C          C       0.36524   0.89708   0.34301  -0.13204
C          C       0.12486   0.48431   0.27176  -0.13517
C          C       0.43730   0.59827   0.23844   0.07083
C          C       0.39889   0.84456   0.25999   0.06971
C          C       0.15445   0.56043   0.23743   0.06767
C          C       0.40983   0.50910   0.11968  -0.13135
C          C       0.47059   0.88297   0.19332  -0.13513
C          C       0.09556   0.58303   0.20556  -0.13053
C          C       0.45919   0.47406   0.12720  -0.11323
C          C       0.50801   0.96984   0.21098  -0.11144
C          C       0.01242   0.53370   0.21196  -0.11940
C          C       0.53824   0.52712   0.25538   0.09284
C          C       0.47441   0.02257   0.29441   0.09010
C          C       0.98322   0.45783   0.24771   0.09027
C          C       0.29678   0.58119   0.22654  -0.17674
C          C       0.41507   0.71955   0.24681  -0.17737
C          C       0.27791   0.70034   0.24318  -0.17236
C          C       0.38257   0.63351   0.23556   0.07207
C          C       0.36312   0.75367   0.24810   0.07644
C          C       0.24344   0.61413   0.23430   0.07327
C          C       0.71372   0.29236   0.77804  -0.05895
C          C       0.70644   0.41010   0.73864  -0.05346
C          C       0.58023   0.28498   0.75056  -0.06503
C          C       0.62554   0.24509   0.76887   0.07625
C          C       0.75598   0.37443   0.76081   0.08076
C          C       0.61994   0.36822   0.73850   0.08220
C          C       0.58758   0.15783   0.76955  -0.16247
C          C       0.84370   0.42379   0.75818  -0.16250
C          C       0.56945   0.40452   0.71786  -0.17222
C          C       0.51330   0.11016   0.80790  -0.09478
C          C       0.90371   0.40337   0.76306  -0.07425
C          C       0.59680   0.49273   0.78943  -0.07883
C          C       0.75833   0.25415   0.81186   0.25074
C          C       0.74489   0.48765   0.70428   0.24458
C          C       0.49257   0.24363   0.74208   0.24944
C          C       0.57055   0.61572   0.88561  -0.11683
C          C       0.40604   0.98042   0.85343  -0.11877
C          C       0.04755   0.43340   0.77817  -0.11645
C          C       0.52050   0.64965   0.87273  -0.13953
C          C       0.37003   0.89349   0.83650  -0.12855
C          C       0.13099   0.48385   0.77380  -0.13571
C          C       0.44339   0.59666   0.73972   0.07018
C          C       0.40459   0.84189   0.75427   0.06832
C          C       0.16034   0.55937   0.73728   0.06698
C          C       0.41948   0.50956   0.61481  -0.13225
C          C       0.47660   0.88124   0.68932  -0.13456
C          C       0.10131   0.58198   0.70617  -0.12823
C          C       0.46939   0.47556   0.62684  -0.11464
C          C       0.51290   0.96790   0.70644  -0.11411
C          C       0.01832   0.53281   0.71406  -0.12125
C          C       0.54505   0.52733   0.76551   0.08986
C          C       0.47863   0.01989   0.79026   0.09405
C          C       0.98915   0.45708   0.75042   0.09133
C          C       0.30248   0.57932   0.72573  -0.17859
C          C       0.42107   0.71719   0.74403  -0.18104
C          C       0.28382   0.69793   0.73757  -0.17406
C          C       0.38824   0.63129   0.73395   0.07264
C          C       0.36914   0.75115   0.74301   0.07705
C          C       0.24920   0.61233   0.73199   0.07435
N          N       0.78642   0.22242   0.34517  -0.35141
N          N       0.77477   0.55449   0.17845  -0.36360
N          N       0.41556   0.21318   0.23343  -0.35760
N          N       0.79178   0.22047   0.84435  -0.35269
N          N       0.77814   0.55000   0.67123  -0.36125
N          N       0.42048   0.21361   0.73385  -0.35879

