data_crystal

_audit_creation_method 'AiiDA-DDEC plugin'

_cell_length_a        22.88406
_cell_length_b        21.66106
_cell_length_c        23.93466

_cell_angle_alpha     90.31563
_cell_angle_beta     89.79068
_cell_angle_gamma     89.76395

_symmetry_space_group_name_Hall 'P 1'
_symmetry_space_group_name_H-M  'P 1'

loop_
_symmetry_equiv_pos_as_xyz
 'x,y,z'

loop_
_atom_site_label
_atom_site_type_symbol
_atom_site_fract_x
_atom_site_fract_y
_atom_site_fract_z
_atom_site_charge
H          H       0.10187   0.53392   0.46060   0.09515
H          H       0.89702   0.53418   0.53646   0.09643
H          H       0.59963   0.03628   0.46204   0.09620
H          H       0.39549   0.03310   0.53960   0.09349
H          H       0.10836   0.47653   0.51279   0.10664
H          H       0.89178   0.47469   0.48582   0.10474
H          H       0.60671   0.97787   0.51319   0.10658
H          H       0.39030   0.97407   0.48827   0.10596
H          H       0.01453   0.53266   0.39487   0.09715
H          H       0.98518   0.53705   0.60282   0.10043
H          H       0.51037   0.03468   0.39604   0.09739
H          H       0.48385   0.03552   0.60499   0.09498
H          H       0.96064   0.47527   0.40096   0.10514
H          H       0.03960   0.47967   0.59750   0.10103
H          H       0.45756   0.97644   0.40320   0.10382
H          H       0.53918   0.97912   0.59873   0.10410
H          H       0.44643   0.12973   0.09665   0.06668
H          H       0.55794   0.13479   0.91128   0.06351
H          H       0.94266   0.63832   0.09223   0.06493
H          H       0.05788   0.63714   0.90727   0.06423
H          H       0.52821   0.98652   0.89607   0.10888
H          H       0.47091   0.97675   0.09851   0.10864
H          H       0.03054   0.48582   0.89882   0.11079
H          H       0.97028   0.48815   0.10018   0.11166
H          H       0.47480   0.04606   0.89866   0.09430
H          H       0.52703   0.03208   0.10267   0.10074
H          H       0.97546   0.54358   0.89685   0.09241
H          H       0.02516   0.54581   0.10122   0.09224
H          H       0.60759   0.03395   0.02633   0.10602
H          H       0.39489   0.04375   0.97406   0.09520
H          H       0.10579   0.54470   0.02697   0.09446
H          H       0.89506   0.54510   0.97101   0.09395
H          H       0.60594   0.97958   0.97135   0.10112
H          H       0.39338   0.98376   0.02335   0.10540
H          H       0.10715   0.48697   0.97477   0.10724
H          H       0.89304   0.48847   0.02356   0.10759
H          H       0.11660   0.46234   0.09020   0.06016
H          H       0.88677   0.46388   0.90498   0.05960
H          H       0.60152   0.88977   0.03921   0.06586
H          H       0.38282   0.96282   0.90514   0.06398
H          H       0.06219   0.43258   0.37262   0.06947
H          H       0.95746   0.41696   0.62300   0.06682
H          H       0.55798   0.93262   0.37266   0.07158
H          H       0.43762   0.93367   0.62826   0.06977
H          H       0.16006   0.20232   0.13373   0.11204
H          H       0.83423   0.20320   0.86732   0.11239
H          H       0.65105   0.72205   0.13860   0.11228
H          H       0.34250   0.69997   0.86136   0.11363
H          H       0.08923   0.26453   0.07904   0.12150
H          H       0.90421   0.26455   0.92394   0.12158
H          H       0.58532   0.79872   0.09386   0.11221
H          H       0.41179   0.76432   0.91679   0.11979
H          H       0.20109   0.36226   0.23317   0.11178
H          H       0.80161   0.36201   0.76455   0.11188
H          H       0.71933   0.86434   0.24549   0.11194
H          H       0.29743   0.85895   0.76338   0.11312
H          H       0.13214   0.42475   0.17715   0.11080
H          H       0.87045   0.42277   0.82121   0.11084
H          H       0.65421   0.94132   0.19996   0.11912
H          H       0.36447   0.92312   0.81991   0.11123
H          H       0.27374   0.30209   0.36393   0.11184
H          H       0.72090   0.31100   0.64071   0.11222
H          H       0.77095   0.79405   0.37227   0.11049
H          H       0.22869   0.79921   0.63267   0.11103
H          H       0.21678   0.36283   0.43405   0.11976
H          H       0.77527   0.37980   0.57577   0.11879
H          H       0.71341   0.85828   0.43967   0.11769
H          H       0.28552   0.86199   0.56502   0.12040
H          H       0.11496   0.25651   0.27796   0.11563
H          H       0.88319   0.25555   0.71558   0.11484
H          H       0.61484   0.75859   0.27844   0.11307
H          H       0.38733   0.75241   0.71866   0.11428
H          H       0.05825   0.31837   0.34727   0.11684
H          H       0.93707   0.32181   0.64982   0.11226
H          H       0.55770   0.82298   0.34525   0.11558
H          H       0.44389   0.81541   0.65121   0.11657
H          H       0.23995   0.11236   0.22705   0.11268
H          H       0.75737   0.11310   0.77019   0.11387
H          H       0.74040   0.61406   0.22697   0.11280
H          H       0.26000   0.60920   0.76983   0.11352
H          H       0.30251   0.04358   0.16796   0.12171
H          H       0.69809   0.04465   0.83158   0.12082
H          H       0.80150   0.54800   0.16434   0.12204
H          H       0.19879   0.54288   0.83140   0.12205
H          H       0.29224   0.26838   0.12901   0.11305
H          H       0.70742   0.26951   0.87083   0.11337
H          H       0.78685   0.77335   0.13069   0.11180
H          H       0.21033   0.76847   0.86687   0.11290
H          H       0.35778   0.20038   0.07255   0.11128
H          H       0.64522   0.20202   0.92964   0.11227
H          H       0.85157   0.70822   0.07073   0.11064
H          H       0.14561   0.70328   0.92537   0.10928
H          H       0.38073   0.11416   0.46629   0.06250
H          H       0.61034   0.11891   0.53509   0.06295
H          H       0.88382   0.61349   0.46322   0.06352
H          H       0.11378   0.61674   0.53256   0.06374
H          H       0.35196   0.22573   0.24959   0.11127
H          H       0.64590   0.23088   0.75050   0.11023
H          H       0.85011   0.73130   0.25363   0.11166
H          H       0.15074   0.72845   0.74770   0.11024
H          H       0.42514   0.16056   0.29837   0.11855
H          H       0.57111   0.16640   0.70345   0.11863
H          H       0.92661   0.66716   0.29941   0.11883
H          H       0.07422   0.66617   0.70019   0.12106
H          H       0.21987   0.16688   0.36554   0.11265
H          H       0.77442   0.17015   0.63072   0.11277
H          H       0.72051   0.65674   0.36433   0.11149
H          H       0.27880   0.66106   0.63029   0.11340
H          H       0.29258   0.10067   0.41344   0.10999
H          H       0.70024   0.10460   0.58447   0.11065
H          H       0.79669   0.59230   0.40981   0.11348
H          H       0.20253   0.59821   0.58331   0.11283
H          H       0.53140   0.89445   0.52231   0.10403
H          H       0.46914   0.89320   0.47876   0.10343
H          H       0.03181   0.39384   0.52265   0.10318
H          H       0.96991   0.39277   0.47835   0.10682
H          H       0.97287   0.40310   0.02507   0.10615
H          H       0.02810   0.40269   0.97399   0.10579
H          H       0.46993   0.89768   0.01841   0.10544
H          H       0.52520   0.89897   0.96700   0.09771
H          H       0.02705   0.62834   0.02596   0.09543
H          H       0.97393   0.62846   0.97225   0.09540
H          H       0.53022   0.12004   0.03108   0.09831
H          H       0.47645   0.12497   0.97817   0.09392
H          H       0.97498   0.61808   0.52682   0.10141
H          H       0.02274   0.61715   0.46836   0.09991
H          H       0.47170   0.11739   0.53070   0.09963
H          H       0.51907   0.11889   0.47194   0.10111
C          C       0.95623   0.54550   0.46555   0.13930
C          C       0.04279   0.54754   0.53155   0.14070
C          C       0.45349   0.04621   0.46798   0.14223
C          C       0.54079   0.04803   0.53363   0.13954
C          C       0.03409   0.46343   0.45783   0.13938
C          C       0.96593   0.46506   0.54155   0.14073
C          C       0.53228   0.96513   0.45842   0.14085
C          C       0.46534   0.96423   0.54282   0.13833
C          C       0.07694   0.50554   0.49022  -0.25929
C          C       0.92269   0.50481   0.50780  -0.26169
C          C       0.57499   0.00713   0.49125  -0.26084
C          C       0.42102   0.00453   0.51016  -0.25903
C          C       0.99092   0.50405   0.42523  -0.27219
C          C       0.00878   0.50739   0.57288  -0.27078
C          C       0.48809   0.00554   0.42687  -0.27107
C          C       0.50771   0.00659   0.57463  -0.26871
C          C       0.54134   0.05242   0.96397   0.14428
C          C       0.46159   0.05079   0.03786   0.14125
C          C       0.04059   0.55676   0.96277   0.14099
C          C       0.95976   0.55788   0.03555   0.14492
C          C       0.46074   0.97226   0.95932   0.13789
C          C       0.53777   0.96610   0.03456   0.13610
C          C       0.96214   0.47387   0.96156   0.13784
C          C       0.03843   0.47439   0.03721   0.13881
C          C       0.42464   0.09035   0.07623   0.08339
C          C       0.57911   0.09304   0.92807   0.07844
C          C       0.92156   0.59819   0.07233   0.07831
C          C       0.07844   0.59576   0.92542   0.07944
C          C       0.50112   0.01466   0.92447  -0.25296
C          C       0.49949   0.00626   0.07326  -0.25800
C          C       0.00210   0.51507   0.92499  -0.25365
C          C       0.99842   0.51669   0.07359  -0.25545
C          C       0.57808   0.00771  -0.00095  -0.26228
C          C       0.42288   0.01264   0.99850  -0.26817
C          C       0.07777   0.51548   0.00063  -0.26943
C          C       0.92275   0.51613   0.99779  -0.26756
C          C       0.07765   0.43752   0.07516   0.08482
C          C       0.92299   0.43720   0.92346   0.08685
C          C       0.57586   0.92168   0.06582   0.09028
C          C       0.42097   0.93704   0.92079   0.08392
C          C       0.06825   0.42340   0.41745   0.08626
C          C       0.93494   0.42408   0.58290   0.08512
C          C       0.56606   0.92517   0.41748   0.08576
C          C       0.43223   0.92393   0.58332   0.08880
C          C       0.15366   0.25101   0.14354  -0.13191
C          C       0.84212   0.25134   0.85714  -0.13170
C          C       0.65201   0.77017   0.15188  -0.12921
C          C       0.34755   0.74881   0.85220  -0.13294
C          C       0.11405   0.28560   0.11271  -0.16310
C          C       0.88126   0.28538   0.88905  -0.16289
C          C       0.61547   0.81320   0.12641  -0.19071
C          C       0.38605   0.78436   0.88335  -0.16364
C          C       0.18572   0.27749   0.18777   0.05920
C          C       0.81246   0.27774   0.81146   0.05846
C          C       0.68971   0.78746   0.19550   0.05671
C          C       0.31504   0.77482   0.80826   0.06327
C          C       0.17715   0.34080   0.19904  -0.12369
C          C       0.82358   0.34033   0.79959  -0.12291
C          C       0.69019   0.84999   0.21212  -0.12367
C          C       0.32196   0.83821   0.79735  -0.12393
C          C       0.13842   0.37603   0.16747  -0.18996
C          C       0.86231   0.37478   0.83185  -0.18785
C          C       0.65368   0.89310   0.18707  -0.17161
C          C       0.35960   0.87430   0.82925  -0.18699
C          C       0.10670   0.34911   0.12325   0.20156
C          C       0.89123   0.34807   0.87776   0.20118
C          C       0.61615   0.87546   0.14347   0.20291
C          C       0.39178   0.84787   0.87321   0.19930
C          C       0.19867   0.27584   0.31516   0.05708
C          C       0.79770   0.27979   0.68436   0.06286
C          C       0.69747   0.77310   0.31941   0.05641
C          C       0.30357   0.77206   0.68133   0.05300
C          C       0.22652   0.30594   0.36014  -0.13036
C          C       0.76820   0.31438   0.64338  -0.13357
C          C       0.72428   0.80066   0.36623  -0.13183
C          C       0.27585   0.80305   0.63694  -0.12874
C          C       0.19497   0.33983   0.39947  -0.17597
C          C       0.79830   0.35267   0.60690  -0.16313
C          C       0.69247   0.83649   0.40397  -0.17241
C          C       0.30731   0.83822   0.59904  -0.17738
C          C       0.13411   0.34614   0.39426   0.20301
C          C       0.85941   0.35787   0.60975   0.19779
C          C       0.63251   0.84708   0.39568   0.20300
C          C       0.36808   0.84469   0.60481   0.20330
C          C       0.13751   0.28053   0.31150  -0.12217
C          C       0.85915   0.28318   0.68555  -0.12397
C          C       0.63677   0.78122   0.31313  -0.11869
C          C       0.36470   0.77683   0.68549  -0.12137
C          C       0.10562   0.31550   0.35013  -0.19278
C          C       0.88954   0.32122   0.64884  -0.18197
C          C       0.60472   0.81783   0.35031  -0.18794
C          C       0.39655   0.81277   0.64806  -0.19105
C          C       0.23469   0.23862   0.27579  -0.03787
C          C       0.76263   0.24100   0.72284  -0.03880
C          C       0.73367   0.73688   0.27947  -0.04058
C          C       0.26708   0.73542   0.72017  -0.03637
C          C       0.22734   0.23790   0.21887  -0.03635
C          C       0.77061   0.23902   0.77970  -0.03460
C          C       0.72740   0.74053   0.22250  -0.03763
C          C       0.27396   0.73494   0.77707  -0.04073
C          C       0.26273   0.19548   0.18313   0.05757
C          C       0.73542   0.19658   0.81516   0.06002
C          C       0.76048   0.69894   0.18425   0.05665
C          C       0.23830   0.69379   0.81303   0.06182
C          C       0.26565   0.13158   0.19309  -0.12245
C          C       0.73282   0.13258   0.80509  -0.12447
C          C       0.76456   0.63470   0.19264  -0.12305
C          C       0.23492   0.62968   0.80391  -0.12595
C          C       0.30088   0.09304   0.16056  -0.17114
C          C       0.69946   0.09423   0.83897  -0.16774
C          C       0.79907   0.59764   0.15804  -0.17074
C          C       0.20042   0.59259   0.83788  -0.16812
C          C       0.33607   0.11790   0.11802   0.20279
C          C       0.66560   0.11912   0.88285   0.20152
C          C       0.83280   0.62405   0.11510   0.20430
C          C       0.16599   0.61912   0.88060   0.20090
C          C       0.29533   0.21936   0.13835  -0.12968
C          C       0.70414   0.22052   0.86117  -0.12883
C          C       0.79105   0.72416   0.13876  -0.12825
C          C       0.20667   0.71931   0.85810  -0.13097
C          C       0.33234   0.18148   0.10685  -0.19449
C          C       0.66898   0.18282   0.89406  -0.19318
C          C       0.82756   0.68780   0.10525  -0.19468
C          C       0.17021   0.68295   0.89085  -0.18984
C          C       0.40985   0.08686   0.43877   0.08011
C          C       0.58305   0.09033   0.56275   0.08249
C          C       0.91321   0.58620   0.43597   0.08289
C          C       0.08553   0.58926   0.56031   0.08133
C          C       0.28035   0.20078   0.30375   0.05932
C          C       0.71602   0.20466   0.69468   0.05908
C          C       0.77977   0.69829   0.30553   0.06134
C          C       0.22031   0.69912   0.69251   0.05946
C          C       0.33894   0.19873   0.28566  -0.12556
C          C       0.65781   0.20355   0.71397  -0.12544
C          C       0.83848   0.70088   0.28788  -0.12613
C          C       0.16199   0.70033   0.71145  -0.12426
C          C       0.38005   0.16227   0.31282  -0.16877
C          C       0.61578   0.16734   0.68779  -0.17047
C          C       0.88132   0.66505   0.31321  -0.17218
C          C       0.11912   0.66551   0.68514  -0.17281
C          C       0.36436   0.12746   0.35999   0.20200
C          C       0.63020   0.13175   0.64029   0.20235
C          C       0.86693   0.62645   0.35824   0.20209
C          C       0.13299   0.62919   0.63801   0.20226
C          C       0.26492   0.16559   0.35081  -0.12888
C          C       0.72989   0.16947   0.64678  -0.12796
C          C       0.76571   0.65923   0.35028  -0.12779
C          C       0.23387   0.66262   0.64536  -0.12732
C          C       0.30586   0.12912   0.37832  -0.18818
C          C       0.68810   0.13317   0.62026  -0.18860
C          C       0.80837   0.62352   0.37615  -0.19143
C          C       0.19112   0.62788   0.61857  -0.19221
C          C      -0.00082   0.58755   0.49799  -0.25903
C          C       0.49619   0.08808   0.50103  -0.25910
C          C       0.00060   0.42329   0.50026  -0.25541
C          C       0.49966   0.92389   0.50060  -0.25709
C          C       0.49852   0.92855   0.99451  -0.26185
C          C       0.00031   0.43333  -0.00055  -0.25935
C          C       0.00032   0.59825  -0.00087  -0.26947
C          C       0.50253   0.09241   0.00305  -0.27044
N          N       0.06770   0.38114   0.08817  -0.28573
N          N       0.93005   0.37934   0.91370  -0.28869
N          N       0.58002   0.92080   0.11923  -0.28981
N          N       0.43023   0.88011   0.90855  -0.29165
N          N       0.10411   0.38195   0.43435  -0.28408
N          N       0.88597   0.39833   0.57144  -0.29721
N          N       0.60309   0.88492   0.43457  -0.28655
N          N       0.39785   0.88149   0.56588  -0.28041
N          N       0.37066   0.07807   0.08519  -0.27613
N          N       0.63209   0.07881   0.91578  -0.27848
N          N       0.86780   0.58512   0.08160  -0.27540
N          N       0.13134   0.58048   0.91391  -0.27746
N          N       0.40750   0.09067   0.38533  -0.28424
N          N       0.58696   0.09406   0.61615  -0.28641
N          N       0.91109   0.59023   0.38257  -0.28557
N          N       0.08886   0.59311   0.61370  -0.28469

