data_crystal

_audit_creation_method 'AiiDA-DDEC plugin'

_cell_length_a        29.45903
_cell_length_b        29.35163
_cell_length_c         8.03158

_cell_angle_alpha     57.38075
_cell_angle_beta     98.23727
_cell_angle_gamma     120.35732

_symmetry_space_group_name_Hall 'P 1'
_symmetry_space_group_name_H-M  'P 1'

loop_
_symmetry_equiv_pos_as_xyz
 'x,y,z'

loop_
_atom_site_label
_atom_site_type_symbol
_atom_site_fract_x
_atom_site_fract_y
_atom_site_fract_z
_atom_site_charge
H          H       0.59191   0.58537   0.22883   0.15127
H          H       0.41988   0.00841   0.23505   0.14556
H          H       0.98953   0.40165   0.29439   0.14753
H          H       0.41025   0.41244   0.27426   0.15103
H          H       0.58392   0.99349   0.24075   0.14709
H          H       0.01111   0.59221   0.23710   0.14767
H          H       0.35553   0.55563   0.23912   0.30007
H          H       0.44461   0.79394   0.26351   0.30124
H          H       0.20503   0.64555   0.24263   0.29749
H          H       0.64661   0.44286   0.25344   0.29952
H          H       0.55866   0.20724   0.21699   0.30224
H          H       0.79699   0.35054   0.27063   0.29982
H          H       0.55120   0.33666   0.24766   0.10488
H          H       0.66492   0.21743   0.22641   0.10753
H          H       0.78681   0.44703   0.26784   0.10654
H          H       0.45074   0.66291   0.24071   0.10541
H          H       0.33787   0.78215   0.26327   0.10459
H          H       0.21382   0.54883   0.24129   0.10645
H          H       0.58819   0.58396   0.74812   0.15088
H          H       0.41708   0.01143   0.72474   0.14827
H          H       0.98752   0.40538   0.77261   0.14665
H          H       0.40885   0.41691   0.75315   0.15072
H          H       0.58057   0.99464   0.74313   0.14787
H          H       0.00705   0.58889   0.75946   0.14749
H          H       0.35187   0.55735   0.73592   0.29947
H          H       0.44229   0.79552   0.76270   0.30373
H          H       0.20130   0.64558   0.74722   0.29905
H          H       0.64544   0.44489   0.75468   0.29958
H          H       0.55522   0.20868   0.71600   0.30360
H          H       0.79409   0.35150   0.76938   0.29868
H          H       0.54916   0.33886   0.75081   0.10422
H          H       0.66118   0.21818   0.72722   0.10568
H          H       0.78509   0.44986   0.75861   0.10711
H          H       0.44811   0.66398   0.73784   0.10565
H          H       0.33582   0.78468   0.75742   0.10696
H          H       0.21115   0.54878   0.75052   0.10741
C          C       0.31576   0.60800   0.24460   0.35851
C          C       0.39084   0.70173   0.25561   0.35474
C          C       0.29597   0.68197   0.25334   0.35035
C          C       0.37162   0.64654   0.24709  -0.23876
C          C       0.35234   0.71874   0.25753  -0.24239
C          C       0.27858   0.62676   0.24808  -0.23326
C          C       0.40931   0.63233   0.24060   0.12550
C          C       0.36808   0.77128   0.26159   0.10041
C          C       0.22557   0.59005   0.24445   0.12132
C          C       0.44946   0.44922   0.26448  -0.20025
C          C       0.54895   0.99708   0.23968  -0.19716
C          C       0.00593   0.55119   0.24855  -0.19725
C          C       0.49579   0.44774   0.26274  -0.03419
C          C       0.55121   0.04669   0.23183  -0.03220
C          C       0.95657   0.50306   0.26051  -0.02222
C          C       0.54733   0.49661   0.24919   0.17327
C          C       0.50501   0.05133   0.22982   0.18658
C          C       0.95015   0.44888   0.27789   0.18417
C          C       0.55282   0.54879   0.23672  -0.19802
C          C       0.45478   0.00462   0.23677  -0.19650
C          C       0.99461   0.44266   0.28272  -0.19848
C          C       0.50649   0.55031   0.23809  -0.03308
C          C       0.45253   0.95498   0.24495  -0.03227
C          C       0.04398   0.49094   0.26951  -0.02254
C          C       0.45501   0.50154   0.25074   0.17302
C          C       0.49869   0.95026   0.24704   0.18738
C          C       0.05047   0.54518   0.25194   0.18301
C          C       0.57143   0.43532   0.25920   0.27272
C          C       0.56489   0.13805   0.21852   0.27282
C          C       0.86614   0.42505   0.27544   0.25946
C          C       0.43078   0.56317   0.23671   0.27127
C          C       0.43851   0.86333   0.25974   0.26909
C          C       0.13468   0.56980   0.24694   0.25869
C          C       0.59268   0.36687   0.24871   0.12923
C          C       0.63469   0.22859   0.22515   0.09934
C          C       0.77555   0.40611   0.26372   0.12156
C          C       0.63030   0.35246   0.24237  -0.24322
C          C       0.64997   0.28039   0.23296  -0.24600
C          C       0.72308   0.37074   0.25113  -0.23315
C          C       0.68600   0.39039   0.24850   0.36106
C          C       0.61134   0.29757   0.23247   0.35506
C          C       0.70593   0.31575   0.24511   0.35095
C          C       0.31314   0.60941   0.74540   0.36129
C          C       0.38852   0.70354   0.75352   0.35540
C          C       0.29351   0.68384   0.75144   0.35254
C          C       0.36911   0.64805   0.74648  -0.24066
C          C       0.35002   0.72069   0.75476  -0.24385
C          C       0.27593   0.62798   0.75008  -0.23350
C          C       0.40646   0.63348   0.73918   0.12332
C          C       0.36588   0.77334   0.75813   0.09891
C          C       0.22275   0.59048   0.75041   0.12263
C          C       0.44750   0.45222   0.75347  -0.19866
C          C       0.54586  -0.00098   0.73766  -0.19718
C          C       0.00240   0.54929   0.76245  -0.20005
C          C       0.49376   0.44997   0.75886  -0.03342
C          C       0.54814   0.04893   0.72766  -0.03014
C          C       0.95342   0.50232   0.76715  -0.02105
C          C       0.54471   0.49743   0.75568   0.17033
C          C       0.50199   0.05387   0.72293   0.18546
C          C       0.94748   0.44997   0.77275   0.18191
C          C       0.54956   0.54878   0.74704  -0.19643
C          C       0.45184   0.00725   0.72868  -0.19839
C          C       0.99217   0.44467   0.77180  -0.19557
C          C       0.50332   0.55115   0.74084  -0.03505
C          C       0.44953   0.95725   0.73914  -0.02971
C          C       0.04118   0.49172   0.76670  -0.02381
C          C       0.45240   0.50375   0.74368   0.17421
C          C       0.49570   0.95235   0.74379   0.18424
C          C       0.04710   0.54398   0.76169   0.18626
C          C       0.56981   0.43732   0.76216   0.27313
C          C       0.56164   0.14005   0.71517   0.27460
C          C       0.86350   0.42615   0.77218   0.25865
C          C       0.42739   0.56446   0.73278   0.27242
C          C       0.43595   0.86513   0.75756   0.27155
C          C       0.13147   0.56919   0.75423   0.25672
C          C       0.59082   0.36915   0.74986   0.12572
C          C       0.63132   0.22989   0.72549   0.09667
C          C       0.77332   0.40816   0.75834   0.11937
C          C       0.62813   0.35468   0.74124  -0.23833
C          C       0.64703   0.28182   0.73313  -0.24413
C          C       0.72066   0.37250   0.74879  -0.23194
C          C       0.68394   0.39253   0.74606   0.35895
C          C       0.60881   0.29972   0.73102   0.35711
C          C       0.70300   0.31684   0.74593   0.35217
S          S       0.50172   0.38948   0.27826   0.05117
S          S       0.60742   0.11126   0.22204   0.04037
S          S       0.89453   0.49773   0.25412   0.03686
S          S       0.50034   0.60863   0.22153   0.04964
S          S       0.39629   0.89065   0.25413   0.04093
S          S       0.10600   0.49661   0.27179   0.03496
S          S       0.50052   0.39276   0.76985   0.04687
S          S       0.60413   0.11299   0.72096   0.04090
S          S       0.89134   0.49662   0.76453   0.03589
S          S       0.49659   0.60877   0.72705   0.04622
S          S       0.39341   0.89232   0.75037   0.03659
S          S       0.10354   0.49842   0.76367   0.03843
N          N       0.39658   0.58219   0.23618  -0.23713
N          N       0.41890   0.80894   0.26414  -0.23710
N          N       0.18848   0.60402   0.24329  -0.23792
N          N       0.60553   0.41666   0.25544  -0.23993
N          N       0.58427   0.19205   0.21618  -0.24526
N          N       0.81268   0.39149   0.27219  -0.24056
N          N       0.41320   0.51039   0.24950  -0.36640
N          N       0.48919   0.89779   0.25615  -0.35069
N          N       0.10222   0.58864   0.24021  -0.36113
N          N       0.58914   0.48797   0.24775  -0.36492
N          N       0.51429   0.10358   0.22157  -0.35308
N          N       0.89865   0.40594   0.28563  -0.36057
N          N       0.39314   0.58328   0.73400  -0.23720
N          N       0.41658   0.81062   0.76291  -0.24324
N          N       0.18526   0.60378   0.75046  -0.23863
N          N       0.60411   0.41893   0.75765  -0.23857
N          N       0.58088   0.19359   0.71574  -0.24040
N          N       0.81014   0.39304   0.76773  -0.23814
N          N       0.41045   0.51285   0.73863  -0.36524
N          N       0.48649   0.89975   0.75463  -0.35153
N          N       0.09857   0.58662   0.75554  -0.35968
N          N       0.58674   0.48867   0.75812  -0.36545
N          N       0.51121   0.10606   0.71502  -0.35285
N          N       0.89616   0.40792   0.77541  -0.36111
O          O       0.29984   0.56021   0.23755  -0.45017
O          O       0.43958   0.73372   0.26086  -0.45159
O          O       0.26340   0.69806   0.25489  -0.44838
O          O       0.70194   0.43824   0.25501  -0.45078
O          O       0.56279   0.26582   0.22481  -0.45185
O          O       0.73821   0.29863   0.25010  -0.45037
O          O       0.29704   0.56161   0.73806  -0.45063
O          O       0.43735   0.73588   0.75688  -0.45263
O          O       0.26103   0.70025   0.75088  -0.45108
O          O       0.70022   0.44066   0.75179  -0.44948
O          O       0.56029   0.26862   0.72133  -0.45286
O          O       0.73501   0.29911   0.75322  -0.45148

