data_crystal

_audit_creation_method 'AiiDA-DDEC plugin'

_cell_length_a        48.17536
_cell_length_b        45.03024
_cell_length_c         7.89559

_cell_angle_alpha     89.13924
_cell_angle_beta     79.78561
_cell_angle_gamma     90.09909

_symmetry_space_group_name_Hall 'P 1'
_symmetry_space_group_name_H-M  'P 1'

loop_
_symmetry_equiv_pos_as_xyz
 'x,y,z'

loop_
_atom_site_label
_atom_site_type_symbol
_atom_site_fract_x
_atom_site_fract_y
_atom_site_fract_z
_atom_site_charge
H          H       0.10669   0.96523   0.15774   0.10721
H          H       0.89095   0.96662   0.34090   0.10680
H          H       0.89204   0.03694   0.36002   0.10733
H          H       0.10838   0.03499   0.18327   0.10803
H          H       0.13895   0.92243   0.17127   0.11743
H          H       0.85882   0.92404   0.32028   0.11770
H          H       0.85928   0.07936   0.35125   0.11691
H          H       0.14114   0.07708   0.20314   0.11755
H          H       0.07204   0.87380   0.02350   0.10236
H          H       0.92567   0.87816   0.47421   0.10213
H          H       0.92469   0.12472   0.50636   0.10150
H          H       0.07554   0.11962   0.03103   0.10127
H          H       0.04069   0.91706   0.01363   0.10330
H          H       0.95753   0.92107   0.48387   0.10127
H          H       0.95710   0.08219   0.50678   0.10513
H          H       0.04334   0.07690   0.02221   0.10021
H          H       0.17738   0.77675   0.18159   0.10932
H          H       0.82293   0.77656   0.30466   0.10921
H          H       0.82019   0.22580   0.33981   0.10675
H          H       0.17795   0.22341   0.19244   0.10851
H          H       0.14438   0.81927   0.19706   0.10505
H          H       0.85533   0.81961   0.29414   0.10709
H          H       0.85297   0.18337   0.33515   0.10749
H          H       0.14523   0.18033   0.21096   0.10651
H          H       0.20341   0.87382   0.40239   0.12512
H          H       0.79427   0.87564   0.11252   0.12500
H          H       0.79368   0.12700   0.14468   0.12447
H          H       0.20596   0.12513   0.40079   0.12517
H          H       0.23633   0.83113   0.38966   0.10891
H          H       0.76207   0.83250   0.11910   0.11157
H          H       0.76109   0.16963   0.14437   0.11029
H          H       0.23871   0.16828   0.38515   0.11165
H          H       0.32330   0.72663   0.32096   0.10871
H          H       0.67804   0.72392   0.15561   0.10761
H          H       0.67534   0.27602   0.17777   0.11071
H          H       0.32309   0.27607   0.30494   0.10884
H          H       0.35672   0.68452   0.29934   0.10811
H          H       0.64490   0.68145   0.18420   0.10752
H          H       0.64267   0.31886   0.19303   0.10530
H          H       0.35563   0.31919   0.28083   0.10632
H          H       0.29686   0.62932   0.10626   0.12451
H          H       0.70415   0.62770   0.39808   0.12433
H          H       0.70289   0.37344   0.38650   0.12460
H          H       0.29453   0.37325   0.08630   0.12314
H          H       0.26357   0.67181   0.12189   0.10887
H          H       0.73748   0.67043   0.37176   0.11156
H          H       0.73565   0.33043   0.37412   0.11193
H          H       0.26183   0.32996   0.10954   0.10956
H          H       0.11799   0.85167   0.42309   0.06450
H          H       0.88026   0.85553   0.05920   0.06259
H          H       0.87852   0.15044   0.09974   0.06507
H          H       0.12034   0.14744   0.44229   0.06509
H          H       0.42652   0.37722   0.46379   0.10163
H          H       0.57449   0.37625   0.01668   0.10182
H          H       0.57362   0.62181   0.01839   0.10142
H          H       0.42701   0.62344   0.47254   0.10240
H          H       0.35859   0.42312   0.29321   0.11685
H          H       0.63935   0.42284   0.18123   0.11647
H          H       0.63997   0.57801   0.18630   0.11636
H          H       0.36034   0.58023   0.31466   0.11658
H          H       0.39077   0.46564   0.31428   0.10780
H          H       0.60777   0.46613   0.16682   0.10865
H          H       0.60762   0.53551   0.17141   0.10750
H          H       0.39155   0.53652   0.32719   0.10777
H          H       0.38087   0.35294   0.05183   0.06537
H          H       0.61726   0.35135   0.41886   0.06462
H          H       0.61861   0.64913   0.41807   0.06606
H          H       0.38265   0.65113   0.06950   0.06358
H          H       0.52289   0.57620   0.28031   0.10464
H          H       0.47611   0.57632   0.20415   0.10519
H          H       0.47607   0.42529   0.20286   0.10466
H          H       0.52303   0.42516   0.27573   0.10374
H          H       0.02300   0.92579   0.28122   0.10347
H          H       0.97588   0.92661   0.20823   0.10435
H          H       0.97645   0.07761   0.23037   0.10440
H          H       0.02364   0.07668   0.30130   0.10360
H          H       0.45776   0.42028   0.47965   0.10092
H          H       0.54259   0.41896   0.00645   0.10220
H          H       0.54234   0.57858   0.00776   0.10086
H          H       0.45789   0.57974   0.48302   0.10182
H          H       0.08909  -0.00031   0.38529   0.10596
H          H       0.90948   0.00323   0.13847   0.10804
H          H       0.40997   0.50111   0.11235   0.10550
H          H       0.58829   0.50038   0.38066   0.10563
H          H       0.10727   0.96312   0.67644   0.10925
H          H       0.89137   0.96593   0.82021   0.10905
H          H       0.89254   0.03401   0.84826   0.10834
H          H       0.10846   0.03229   0.67683   0.10758
H          H       0.13908   0.92005   0.69165   0.11727
H          H       0.85909   0.92335   0.80404   0.11732
H          H       0.85967   0.07650   0.84279   0.11805
H          H       0.14118   0.07469   0.69209   0.11750
H          H       0.07372   0.87724   0.52329   0.10096
H          H       0.92459   0.88174   0.96833   0.10064
H          H       0.92334   0.12562  -0.00342   0.10229
H          H       0.07485   0.12246   0.53454   0.10229
H          H       0.04212   0.92043   0.51620   0.10199
H          H       0.95638   0.92437   0.98622   0.09959
H          H       0.95574   0.08305   0.00144   0.10315
H          H       0.04262   0.07994   0.52257   0.10185
H          H       0.17660   0.77385   0.69693   0.10873
H          H       0.82235   0.77714   0.82866   0.10870
H          H       0.82216   0.22486   0.83595   0.10820
H          H       0.17691   0.22195   0.69219   0.10982
H          H       0.14266   0.81563   0.71967   0.10874
H          H       0.85492   0.82041   0.80741   0.10509
H          H       0.85493   0.18229   0.82734   0.10540
H          H       0.14484   0.17833   0.70712   0.10637
H          H       0.20395   0.87305   0.88256   0.12584
H          H       0.79546   0.87389   0.59331   0.12535
H          H       0.79436   0.12599   0.64851   0.12500
H          H       0.20597   0.12398   0.89974   0.12457
H          H       0.23795   0.83108   0.86191   0.11588
H          H       0.76303   0.83042   0.61064   0.11185
H          H       0.76161   0.16871   0.65439   0.11206
H          H       0.23779   0.16783   0.89012   0.11085
H          H       0.32520   0.72700   0.79986   0.11178
H          H       0.67629   0.72701   0.68252   0.11171
H          H       0.67777   0.27593   0.67306   0.10836
H          H       0.32335   0.27245   0.78838   0.11102
H          H       0.35805   0.68437   0.78461   0.10706
H          H       0.64323   0.68437   0.69631   0.10841
H          H       0.64475   0.31829   0.69191   0.10747
H          H       0.35671   0.31488   0.76891   0.10835
H          H       0.29688   0.62856   0.60836   0.12450
H          H       0.70353   0.62775   0.87970   0.12391
H          H       0.70539   0.37359   0.87750   0.12402
H          H       0.29528   0.37188   0.59910   0.12397
H          H       0.26395   0.67131   0.62085   0.10949
H          H       0.73660   0.67050   0.86929   0.11155
H          H       0.73839   0.33087   0.86260   0.11059
H          H       0.26198   0.32918   0.61465   0.11091
H          H       0.11739   0.84894   0.93593   0.06448
H          H       0.88062   0.85259   0.57049   0.06520
H          H       0.88000   0.14873   0.60190   0.06451
H          H       0.12020   0.14477   0.93723   0.06470
H          H       0.42581   0.37845   0.96529   0.10213
H          H       0.57218   0.37671   0.51239   0.10357
H          H       0.57335   0.62376   0.51249   0.10323
H          H       0.42675   0.62452   0.96727   0.10232
H          H       0.35899   0.42089   0.79479   0.11661
H          H       0.64006   0.42208   0.67096   0.11652
H          H       0.64011   0.57850   0.67737   0.11618
H          H       0.36001   0.57873   0.81290   0.11708
H          H       0.39064   0.46381   0.81561   0.10773
H          H       0.60764   0.46461   0.65523   0.10739
H          H       0.60849   0.53531   0.66285   0.10762
H          H       0.39114   0.53502   0.82656   0.10854
H          H       0.38198   0.35112   0.54870   0.06394
H          H       0.61934   0.35120   0.92183   0.06463
H          H       0.61793   0.64824   0.92520   0.06565
H          H       0.38279   0.64919   0.56010   0.06406
H          H       0.52286   0.57498   0.78554   0.10469
H          H       0.47591   0.57503   0.71253   0.10394
H          H       0.47640   0.42405   0.70321   0.10517
H          H       0.52323   0.42396   0.77848   0.10429
H          H       0.02232   0.92309   0.78794   0.10407
H          H       0.97572   0.92422   0.70929   0.10486
H          H       0.97687   0.07518   0.73153   0.10360
H          H       0.02412   0.07404   0.80159   0.10310
H          H       0.45757   0.42110   0.98131   0.10150
H          H       0.54109   0.42023   0.50390   0.10169
H          H       0.54154   0.58077   0.50658   0.10191
H          H       0.45752   0.58078   0.97620   0.10163
H          H       0.08902   0.99704   0.88859   0.10719
H          H       0.91081   0.00133   0.62164   0.10543
H          H       0.41016   0.49991   0.61358   0.10734
H          H       0.58946   0.49923   0.86899   0.10807
C          C       0.02711   0.97348   0.29613   0.03480
C          C       0.97169   0.97453   0.21090   0.03429
C          C       0.97189   0.02982   0.21917   0.03485
C          C       0.02745   0.02871   0.30403   0.03285
C          C       0.01260   0.94687   0.26867  -0.13590
C          C       0.98623   0.94737   0.22810  -0.13199
C          C       0.98665   0.05644   0.24408  -0.13815
C          C       0.01310   0.05591   0.28401  -0.13026
C          C       0.05493   0.97317   0.33243   0.02770
C          C       0.94365   0.97526   0.17742   0.02837
C          C       0.94388   0.02999   0.18563   0.02656
C          C       0.05533   0.02784   0.34013   0.02455
C          C       0.07212   0.94606   0.33749   0.07671
C          C       0.92610   0.94867   0.16457   0.07814
C          C       0.92635   0.05688   0.18123   0.07777
C          C       0.07304   0.05430   0.35214   0.07819
C          C       0.09975   0.94617   0.24082  -0.13026
C          C       0.89813   0.94822   0.25675  -0.12941
C          C       0.89874   0.05624   0.27841  -0.12903
C          C       0.10124   0.05386   0.26371  -0.12806
C          C       0.11773   0.92232   0.24674  -0.09937
C          C       0.88017   0.92448   0.24671  -0.10087
C          C       0.88045   0.07986   0.27526  -0.09889
C          C       0.11952   0.07730   0.27271  -0.10093
C          C       0.10863   0.89712   0.34897   0.04607
C          C       0.88948   0.90001   0.14360   0.04570
C          C       0.88911   0.10535   0.17456   0.04655
C          C       0.11019   0.10247   0.36944   0.04718
C          C       0.08092   0.89649   0.44202  -0.12529
C          C       0.91730   0.90019   0.05213  -0.12469
C          C       0.91661   0.10634   0.07861  -0.12862
C          C       0.08215   0.10330   0.45665  -0.12840
C          C       0.06299   0.92063   0.43696  -0.14019
C          C       0.93530   0.92409   0.06272  -0.14090
C          C       0.93495   0.08246   0.08180  -0.13931
C          C       0.06389   0.07951   0.44863  -0.13941
C          C       0.25693   0.77881   0.19219   0.12939
C          C       0.74218   0.77788   0.28299   0.12812
C          C       0.74067   0.22365   0.32018   0.12848
C          C       0.25776   0.22235   0.19112   0.12793
C          C       0.27678   0.75520   0.17789   0.13181
C          C       0.72289   0.75378   0.29124   0.13277
C          C       0.72102   0.24732   0.32646   0.13015
C          C       0.27688   0.24674   0.17181   0.13283
C          C       0.27048   0.72670   0.24087  -0.08880
C          C       0.73042   0.72520   0.24091  -0.08731
C          C       0.72801   0.27553   0.26082  -0.08736
C          C       0.27003   0.27495   0.23191  -0.08719
C          C       0.24194   0.72285   0.32780   0.11355
C          C       0.75964   0.72229   0.16595   0.11335
C          C       0.75680   0.27880   0.17707   0.11580
C          C       0.24163   0.27773   0.32168   0.11371
C          C       0.22162   0.74696   0.34291   0.11450
C          C       0.77937   0.74709   0.15413   0.11666
C          C       0.77686   0.25454   0.16879   0.11661
C          C       0.22202   0.25282   0.34219   0.11502
C          C       0.22906   0.77595   0.27200  -0.08582
C          C       0.77078   0.77593   0.21809  -0.08891
C          C       0.76881   0.22598   0.24433  -0.08684
C          C       0.23002   0.22421   0.27350  -0.08655
C          C       0.20905   0.80090   0.28569   0.07635
C          C       0.79029   0.80131   0.21051   0.07444
C          C       0.78850   0.20089   0.23977   0.07234
C          C       0.21041   0.19888   0.28934   0.07409
C          C       0.29108   0.70224   0.22262   0.07682
C          C       0.71027   0.70020   0.26028   0.07601
C          C       0.70786   0.30032   0.27387   0.07734
C          C       0.29016   0.29998   0.20893   0.07405
C          C       0.18273   0.79768   0.23495  -0.10438
C          C       0.81696   0.79797   0.25725  -0.10364
C          C       0.81472   0.20452   0.29124  -0.10249
C          C       0.18374   0.20218   0.24318  -0.10078
C          C       0.16419   0.82154   0.24390  -0.18199
C          C       0.83524   0.82212   0.25062  -0.18078
C          C       0.83315   0.18068   0.28896  -0.18144
C          C       0.16540   0.17810   0.25369  -0.18103
C          C       0.17153   0.84928   0.30353   0.20677
C          C       0.82733   0.85038   0.19741   0.20903
C          C       0.82581   0.15255   0.23491   0.20753
C          C       0.17329   0.15014   0.31102   0.20535
C          C       0.19793   0.85250   0.35403  -0.15693
C          C       0.80042   0.85386   0.15388  -0.15836
C          C       0.79928   0.14872   0.18705  -0.15803
C          C       0.20011   0.14676   0.35553  -0.15533
C          C       0.21627   0.82858   0.34651  -0.11831
C          C       0.78241   0.82966   0.15843  -0.11773
C          C       0.78112   0.17264   0.18722  -0.11720
C          C       0.21829   0.17090   0.34638  -0.11959
C          C       0.31775   0.70567   0.26872  -0.12108
C          C       0.68369   0.70313   0.21194  -0.11921
C          C       0.68126   0.29711   0.22672  -0.12048
C          C       0.31706   0.29707   0.25264  -0.11648
C          C       0.33661   0.68205   0.25613  -0.18216
C          C       0.66491   0.67930   0.22889  -0.18438
C          C       0.66281   0.32105   0.23617  -0.17972
C          C       0.33546   0.32121   0.23783  -0.18298
C          C       0.32913   0.65425   0.19822   0.20528
C          C       0.67221   0.65173   0.29469   0.20929
C          C       0.67057   0.34882   0.29313   0.20307
C          C       0.32747   0.34900   0.17837   0.20525
C          C       0.30240   0.65079   0.15237  -0.15813
C          C       0.69877   0.64880   0.34381  -0.15841
C          C       0.69726   0.35206   0.33971  -0.15413
C          C       0.30056   0.35187   0.13398  -0.15397
C          C       0.28382   0.67450   0.16250  -0.10067
C          C       0.71738   0.67271   0.32835  -0.10538
C          C       0.71549   0.32808   0.33190  -0.10325
C          C       0.28231   0.32769   0.14780  -0.10298
C          C       0.12759   0.87217   0.36054   0.06882
C          C       0.87076   0.87488   0.13093   0.07154
C          C       0.86973   0.13006   0.16776   0.06814
C          C       0.12940   0.12720   0.37837   0.06658
C          C       0.44400   0.52830   0.16129   0.02559
C          C       0.55462   0.52799   0.32855   0.02720
C          C       0.55468   0.47323   0.32595   0.02635
C          C       0.44394   0.47352   0.16014   0.02800
C          C       0.47180   0.52846   0.19838   0.03497
C          C       0.52693   0.52830   0.28930   0.03254
C          C       0.52699   0.47302   0.28694   0.03435
C          C       0.47176   0.47318   0.19741   0.03450
C          C       0.48632   0.55532   0.22166  -0.13813
C          C       0.51255   0.55525   0.26459  -0.13160
C          C       0.51264   0.44618   0.26120  -0.13572
C          C       0.48633   0.44624   0.21966  -0.13361
C          C       0.42661   0.44668   0.14859   0.07808
C          C       0.57200   0.44635   0.33476   0.07869
C          C       0.57210   0.55478   0.33878   0.07688
C          C       0.42688   0.55536   0.15182   0.07857
C          C       0.43618   0.42143   0.05343  -0.14103
C          C       0.56233   0.42060   0.42952  -0.13836
C          C       0.56280   0.58028   0.43234  -0.13795
C          C       0.43649   0.58076   0.05323  -0.13848
C          C       0.41818   0.39748   0.04347  -0.12649
C          C       0.57997   0.39625   0.43550  -0.12928
C          C       0.58088   0.60437   0.43738  -0.12930
C          C       0.41906   0.60532   0.04768  -0.12893
C          C       0.38996   0.39796   0.12820   0.04806
C          C       0.60800   0.39702   0.34757   0.04942
C          C       0.60901   0.60365   0.35097   0.04936
C          C       0.39133   0.60523   0.14053   0.04817
C          C       0.38030   0.42303   0.22501  -0.10167
C          C       0.61779   0.42267   0.25166  -0.10044
C          C       0.61841   0.57826   0.25658  -0.10174
C          C       0.38161   0.57991   0.24000  -0.10210
C          C       0.39829   0.44674   0.23510  -0.13059
C          C       0.60012   0.44675   0.24528  -0.13036
C          C       0.60030   0.55452   0.25016  -0.12864
C          C       0.39904   0.55558   0.24542  -0.12907
C          C       0.37116   0.37292   0.11566   0.06781
C          C       0.62677   0.37186   0.35634   0.06587
C          C       0.62808   0.62867   0.35903   0.06689
C          C       0.37289   0.63078   0.13312   0.06901
C          C       0.01337   0.00138   0.27942   0.00388
C          C       0.98568   0.00192   0.23561   0.00444
C          C       0.06803   0.00020   0.35357  -0.18192
C          C       0.93075   0.00284   0.16676  -0.18630
C          C       0.48560   0.50077   0.21992   0.00412
C          C       0.51313   0.50070   0.26630   0.00458
C          C       0.43104   0.50099   0.14393  -0.18263
C          C       0.56743   0.50053   0.34614  -0.18404
C          C       0.02706   0.97085   0.79856   0.03372
C          C       0.97214   0.97221   0.70609   0.03399
C          C       0.97245   0.02746   0.71623   0.03564
C          C       0.02776   0.02610   0.80297   0.03209
C          C       0.01236   0.94430   0.77190  -0.13706
C          C       0.98625   0.94494   0.72770  -0.13132
C          C       0.98708   0.05399   0.74393  -0.13844
C          C       0.01353   0.05335   0.78343  -0.12808
C          C       0.05474   0.97047   0.83707   0.02649
C          C       0.94448   0.97315   0.66709   0.02621
C          C       0.94467   0.02784   0.67897   0.02724
C          C       0.05561   0.02515   0.83910   0.02879
C          C       0.07170   0.94336   0.84540   0.07877
C          C       0.92693   0.94664   0.65360   0.07833
C          C       0.92722   0.05485   0.67715   0.07896
C          C       0.07345   0.05159   0.84845   0.07579
C          C       0.09979   0.94374   0.75543  -0.12890
C          C       0.89872   0.94692   0.74153  -0.13010
C          C       0.89937   0.05377   0.77099  -0.13016
C          C       0.10147   0.05123   0.75712  -0.12867
C          C       0.11754   0.91979   0.76230  -0.10012
C          C       0.88068   0.92320   0.73425  -0.09897
C          C       0.88105   0.07745   0.76989  -0.09896
C          C       0.11972   0.07482   0.76398  -0.09970
C          C       0.10782   0.89423   0.85946   0.04837
C          C       0.89024   0.89794   0.63923   0.04576
C          C       0.88998   0.10348   0.67512   0.04696
C          C       0.11054   0.09989   0.86201   0.04639
C          C       0.07975   0.89335   0.94651  -0.13010
C          C       0.91826   0.89733   0.55171  -0.12662
C          C       0.91775   0.10494   0.58345  -0.12552
C          C       0.08265   0.10057   0.95182  -0.12484
C          C       0.06198   0.91758   0.93988  -0.13886
C          C       0.93630   0.92135   0.55832  -0.14016
C          C       0.93610   0.08104   0.58432  -0.14123
C          C       0.06442   0.07672   0.94560  -0.13864
C          C       0.25727   0.77793   0.67498   0.12830
C          C       0.74296   0.77793   0.81759   0.12696
C          C       0.74178   0.22339   0.82341   0.12899
C          C       0.25640   0.22109   0.68348   0.12907
C          C       0.27734   0.75464   0.66021   0.12957
C          C       0.72308   0.75428   0.82851   0.13007
C          C       0.72275   0.24754   0.82297   0.13145
C          C       0.27599   0.24513   0.65858   0.12974
C          C       0.27161   0.72642   0.72910  -0.08517
C          C       0.72927   0.72644   0.76066  -0.08850
C          C       0.73034   0.27546   0.75506  -0.08815
C          C       0.26992   0.27315   0.72440  -0.08544
C          C       0.24338   0.72255   0.82162   0.11500
C          C       0.75776   0.72329   0.67297   0.11629
C          C       0.75924   0.27805   0.67408   0.11484
C          C       0.24187   0.27631   0.81933   0.11415
C          C       0.22296   0.74649   0.83854   0.11458
C          C       0.77811   0.74742   0.66098   0.11729
C          C       0.77876   0.25341   0.67182   0.11499
C          C       0.22166   0.25194   0.84119   0.11580
C          C       0.22983   0.77516   0.76197  -0.08480
C          C       0.77068   0.77572   0.73534  -0.08314
C          C       0.77009   0.22508   0.74940  -0.08362
C          C       0.22905   0.22327   0.77226  -0.08439
C          C       0.20948   0.79964   0.77876   0.07426
C          C       0.79056   0.80087   0.72041   0.07342
C          C       0.78963   0.19984   0.74504   0.07171
C          C       0.20940   0.19788   0.79099   0.07563
C          C       0.29221   0.70204   0.71228   0.07535
C          C       0.70879   0.70176   0.77468   0.07473
C          C       0.71037   0.30039   0.76695   0.07518
C          C       0.29042   0.29784   0.70239   0.07455
C          C       0.18229   0.79530   0.74232  -0.09745
C          C       0.81682   0.79801   0.77232  -0.10093
C          C       0.81630   0.20346   0.79078  -0.09723
C          C       0.18284   0.20078   0.74305  -0.10376
C          C       0.16325   0.81869   0.75553  -0.18246
C          C       0.83509   0.82222   0.76013  -0.18142
C          C       0.83475   0.17958   0.78544  -0.18197
C          C       0.16487   0.17638   0.75188  -0.18289
C          C       0.17097   0.84696   0.80576   0.20640
C          C       0.82747   0.84978   0.69591   0.20355
C          C       0.82701   0.15139   0.73404   0.20796
C          C       0.17307   0.14849   0.80858   0.20551
C          C       0.19822   0.85124   0.84231  -0.15471
C          C       0.80108   0.85266   0.64494  -0.15423
C          C       0.80017   0.14768   0.69022  -0.15805
C          C       0.19977   0.14555   0.85555  -0.15453
C          C       0.21710   0.82781   0.83033  -0.12186
C          C       0.78304   0.82837   0.65528  -0.11943
C          C       0.78192   0.17162   0.69406  -0.11631
C          C       0.21750   0.17005   0.84900  -0.11794
C          C       0.31914   0.70569   0.75407  -0.11878
C          C       0.68208   0.70548   0.72963  -0.11731
C          C       0.68362   0.29702   0.72221  -0.11857
C          C       0.31750   0.29399   0.74186  -0.11897
C          C       0.33770   0.68181   0.74479  -0.18219
C          C       0.66342   0.68157   0.73804  -0.18194
C          C       0.66493   0.32075   0.73397  -0.18037
C          C       0.33629   0.31780   0.73026  -0.18135
C          C       0.32966   0.65369   0.69410   0.20736
C          C       0.67109   0.65323   0.79120   0.20550
C          C       0.67260   0.34860   0.79039   0.20467
C          C       0.32838   0.34619   0.67914   0.20757
C          C       0.30277   0.65017   0.65078  -0.15754
C          C       0.69787   0.64956   0.83612  -0.15657
C          C       0.69953   0.35208   0.83345  -0.15539
C          C       0.30124   0.34996   0.63936  -0.15484
C          C       0.28444   0.67403   0.65841  -0.09868
C          C       0.71628   0.67347   0.82966  -0.09963
C          C       0.71799   0.32825   0.82365  -0.10382
C          C       0.28267   0.32614   0.64909  -0.10108
C          C       0.12675   0.86933   0.87077   0.06582
C          C       0.87126   0.87296   0.63115   0.06521
C          C       0.87082   0.12841   0.66874   0.06716
C          C       0.12956   0.12476   0.87208   0.06721
C          C       0.44405   0.52707   0.66492   0.02642
C          C       0.55538   0.52681   0.82339   0.02782
C          C       0.55530   0.47198   0.82237   0.02724
C          C       0.44407   0.47226   0.66174   0.02620
C          C       0.47188   0.52722   0.70206   0.03545
C          C       0.52736   0.52709   0.78883   0.03505
C          C       0.52738   0.47179   0.78694   0.03409
C          C       0.47195   0.47194   0.69871   0.03447
C          C       0.48633   0.55404   0.72695  -0.13491
C          C       0.51269   0.55401   0.76793  -0.13414
C          C       0.51287   0.44496   0.76295  -0.13324
C          C       0.48658   0.44502   0.72079  -0.13512
C          C       0.42672   0.44540   0.64888   0.07774
C          C       0.57272   0.44510   0.83081   0.07825
C          C       0.57280   0.55372   0.83330   0.07785
C          C       0.42690   0.55413   0.65555   0.07881
C          C       0.43642   0.42031   0.55244  -0.13952
C          C       0.56365   0.41955   0.92955  -0.13852
C          C       0.56342   0.57873   0.93113  -0.13983
C          C       0.43671   0.57963   0.55842  -0.13769
C          C       0.41867   0.39612   0.54248  -0.12771
C          C       0.58175   0.39559   0.93641  -0.12701
C          C       0.58118   0.60302   0.93803  -0.12561
C          C       0.41924   0.60413   0.55170  -0.12808
C          C       0.39050   0.39611   0.62846   0.04753
C          C       0.60960   0.39642   0.84531   0.04594
C          C       0.60905   0.60320   0.84725   0.04759
C          C       0.39135   0.60394   0.64184   0.04806
C          C       0.38065   0.42110   0.72566  -0.10078
C          C       0.61872   0.42178   0.74464  -0.09903
C          C       0.61864   0.57821   0.74933  -0.10066
C          C       0.38144   0.57857   0.74045  -0.09959
C          C       0.39839   0.44507   0.73565  -0.12840
C          C       0.60061   0.44547   0.73743  -0.13016
C          C       0.60089   0.55412   0.74267  -0.13016
C          C       0.39886   0.55424   0.74670  -0.13095
C          C       0.37205   0.37068   0.61622   0.06851
C          C       0.62867   0.37153   0.85569   0.06957
C          C       0.62758   0.62867   0.85643   0.06800
C          C       0.37301   0.62943   0.63048   0.06897
C          C       0.01360   0.99881   0.77898   0.00527
C          C       0.98609  -0.00050   0.73288   0.00330
C          C       0.06804   0.99751   0.85579  -0.18663
C          C       0.93177   0.00081   0.65472  -0.18572
C          C       0.48579   0.49953   0.72196   0.00364
C          C       0.51347   0.49948   0.76686   0.00367
C          C       0.43116   0.49976   0.64632  -0.18405
C          C       0.56830   0.49934   0.83875  -0.18588
S          S       0.80046   0.29588   0.01108   0.41166
S          S       0.19838   0.29398   0.49157   0.40997
S          S       0.19886   0.70479   0.49622   0.40890
S          S       0.80415   0.70571   0.01309   0.40711
S          S       0.80364   0.29396   0.51286   0.41169
S          S       0.19932   0.29355   0.99277   0.41354
S          S       0.20112   0.70482   0.00096   0.41460
S          S       0.80080   0.70668   0.50251   0.41408
N          N       0.15433   0.87427   0.30360  -0.27238
N          N       0.84434   0.87552   0.19802  -0.27210
N          N       0.84335   0.12787   0.23467  -0.27168
N          N       0.15594   0.12520   0.31591  -0.27112
N          N       0.65481   0.62671   0.30192  -0.27336
N          N       0.34631   0.62923   0.19537  -0.27065
N          N       0.34446   0.37427   0.17474  -0.27232
N          N       0.65342   0.37383   0.29604  -0.27034
N          N       0.80258   0.26160   0.07713  -0.34965
N          N       0.19661   0.25933   0.43715  -0.34703
N          N       0.19622   0.73936   0.43644  -0.34738
N          N       0.80547   0.74031   0.06949  -0.34969
N          N       0.76779   0.30358   0.09165  -0.33842
N          N       0.23059   0.30249   0.40171  -0.34295
N          N       0.23144   0.69765   0.41045  -0.34341
N          N       0.77134   0.69746   0.09024  -0.34410
N          N       0.15333   0.87154   0.80933  -0.27154
N          N       0.84462   0.87490   0.69054  -0.26926
N          N       0.84434   0.12650   0.73363  -0.27204
N          N       0.15616   0.12323   0.81022  -0.27166
N          N       0.65406   0.62805   0.79067  -0.27048
N          N       0.34653   0.62852   0.69600  -0.27128
N          N       0.34544   0.37134   0.67895  -0.27226
N          N       0.65523   0.37347   0.79296  -0.27199
N          N       0.80486   0.25988   0.58366  -0.34624
N          N       0.19650   0.25907   0.93742  -0.34682
N          N       0.19803   0.73915   0.93868  -0.34653
N          N       0.80353   0.74064   0.56671  -0.34742
N          N       0.77091   0.30241   0.58710  -0.34333
N          N       0.23162   0.30120   0.90133  -0.34096
N          N       0.23334   0.69756   0.90866  -0.34055
N          N       0.76821   0.69884   0.58711  -0.33895
F          F       0.26666   0.80501   0.11670  -0.10625
F          F       0.73063   0.80357   0.35000  -0.10615
F          F       0.73054   0.19794   0.40000  -0.10674
F          F       0.26800   0.19661   0.11690  -0.10696
F          F       0.30294   0.76191   0.09113  -0.10767
F          F       0.69577   0.76036   0.35891  -0.10737
F          F       0.69440   0.24108   0.40862  -0.10637
F          F       0.30297   0.24106   0.08273  -0.10746
F          F       0.26661   0.80363   0.59189  -0.10617
F          F       0.73338   0.80331   0.89925  -0.10770
F          F       0.73069   0.19824   0.90733  -0.10930
F          F       0.26537   0.19507   0.60818  -0.10513
F          F       0.30294   0.76178   0.56643  -0.10731
F          F       0.69702   0.76039   0.91707  -0.10508
F          F       0.69574   0.24244   0.90086  -0.10539
F          F       0.30138   0.23957   0.55867  -0.10822

