data_crystal

_audit_creation_method 'AiiDA-DDEC plugin'

_cell_length_a        48.07897
_cell_length_b        45.08961
_cell_length_c         7.91599

_cell_angle_alpha     91.32420
_cell_angle_beta     79.10815
_cell_angle_gamma     90.08224

_symmetry_space_group_name_Hall 'P 1'
_symmetry_space_group_name_H-M  'P 1'

loop_
_symmetry_equiv_pos_as_xyz
 'x,y,z'

loop_
_atom_site_label
_atom_site_type_symbol
_atom_site_fract_x
_atom_site_fract_y
_atom_site_fract_z
_atom_site_charge
H          H       0.10791   0.96391   0.17082   0.10733
H          H       0.89044   0.96596   0.33968   0.10745
H          H       0.89098   0.03734   0.34521   0.10728
H          H       0.10756   0.03415   0.16103   0.10725
H          H       0.13964   0.92087   0.18211   0.11565
H          H       0.85821   0.92327   0.32541   0.11672
H          H       0.85963   0.08056   0.32810   0.11571
H          H       0.14030   0.07671   0.16876   0.11538
H          H       0.07239   0.87677   0.02015   0.10221
H          H       0.92510   0.87779   0.46921   0.10181
H          H       0.92648   0.12270   0.49519   0.10173
H          H       0.07466   0.12285   0.02716   0.10248
H          H       0.04084   0.91965   0.01186   0.10164
H          H       0.95670   0.92070   0.48494   0.10107
H          H       0.95779   0.07955   0.50337   0.10049
H          H       0.04269   0.07975   0.02373   0.10186
H          H       0.26402   0.79756   0.12324   0.11036
H          H       0.73480   0.79753   0.38202   0.10899
H          H       0.73678   0.20354   0.37559   0.11182
H          H       0.26421   0.20280   0.10475   0.10853
H          H       0.29834   0.75659   0.09474   0.10772
H          H       0.70157   0.75558   0.40977   0.10855
H          H       0.70228   0.24440   0.40799   0.10787
H          H       0.29764   0.24450   0.08265   0.10725
H          H       0.17604   0.77356   0.18296   0.10802
H          H       0.82345   0.77481   0.31131   0.10874
H          H       0.82444   0.22741   0.32308   0.10820
H          H       0.17632   0.22423   0.17602   0.10932
H          H       0.14300   0.81613   0.20071   0.10683
H          H       0.85557   0.81808   0.29884   0.10662
H          H       0.85672   0.18422   0.30973   0.10616
H          H       0.14461   0.18060   0.18522   0.10639
H          H       0.20428   0.87302   0.37259   0.12072
H          H       0.79314   0.87272   0.13346   0.12110
H          H       0.79596   0.12870   0.12237   0.12027
H          H       0.20658   0.12673   0.36025   0.12205
H          H       0.23729   0.83016   0.35928   0.10180
H          H       0.76093   0.82919   0.14388   0.10114
H          H       0.76360   0.17205   0.13424   0.10233
H          H       0.23848   0.17044   0.35123   0.10262
H          H       0.32223   0.72598   0.29762   0.09958
H          H       0.67880   0.72376   0.19693   0.10251
H          H       0.67849   0.27562   0.20037   0.10020
H          H       0.32171   0.27556   0.29230   0.10207
H          H       0.35672   0.68445   0.27569   0.10496
H          H       0.64485   0.68184   0.21478   0.10221
H          H       0.64455   0.31747   0.21642   0.10509
H          H       0.35552   0.31752   0.27472   0.10641
H          H       0.29734   0.62631   0.09339   0.12378
H          H       0.70409   0.62610   0.40288   0.12438
H          H       0.70268   0.37463   0.41763   0.12381
H          H       0.29454   0.37435   0.11130   0.12349
H          H       0.26311   0.66812   0.10983   0.11132
H          H       0.73809   0.66823   0.38725   0.11096
H          H       0.73676   0.33266   0.40221   0.11113
H          H       0.26093   0.33202   0.12268   0.10970
H          H       0.11758   0.85124   0.42662   0.06485
H          H       0.87989   0.85204   0.07446   0.06443
H          H       0.88202   0.14885   0.07203   0.06636
H          H       0.12061   0.14774   0.42365   0.06549
H          H       0.42813   0.37509   0.46937   0.10068
H          H       0.57265   0.37872   0.03087   0.10025
H          H       0.57364   0.62255   0.03472   0.10090
H          H       0.42767   0.62160   0.46656   0.10078
H          H       0.35938   0.42207   0.31742   0.11704
H          H       0.64021   0.42118   0.19280   0.11879
H          H       0.64038   0.57894   0.17867   0.11967
H          H       0.35980   0.57991   0.29743   0.11659
H          H       0.39144   0.46493   0.33547   0.10699
H          H       0.60877   0.46401   0.17040   0.10799
H          H       0.60866   0.53595   0.15655   0.10828
H          H       0.39085   0.53669   0.31969   0.10834
H          H       0.38075   0.35241   0.05082   0.06303
H          H       0.61681   0.35214   0.43855   0.06229
H          H       0.61851   0.64856   0.44101   0.06407
H          H       0.38377   0.64893   0.05301   0.06180
H          H       0.52393   0.57570   0.28085   0.10408
H          H       0.47692   0.57574   0.20888   0.10485
H          H       0.47600   0.42501   0.20663   0.10343
H          H       0.52258   0.42496   0.28565   0.10451
H          H       0.02266   0.92467   0.28746   0.10419
H          H       0.97572   0.92482   0.21345   0.10342
H          H       0.97633   0.07570   0.22718   0.10465
H          H       0.02342   0.07543   0.29875   0.10410
H          H       0.45925   0.41859   0.47899   0.10135
H          H       0.54139   0.42164   0.01606   0.09977
H          H       0.54192   0.58000   0.01317   0.10056
H          H       0.45906   0.57878   0.48104   0.10047
H          H       0.08909  -0.00024   0.38288   0.10586
H          H       0.90953   0.00072   0.13505   0.10687
H          H       0.41034   0.50031   0.11730   0.10714
H          H       0.58956   0.50036   0.37085   0.10751
H          H       0.10785   0.96382   0.67375   0.10805
H          H       0.89078   0.96477   0.84476   0.10797
H          H       0.89046   0.03571   0.84066   0.10759
H          H       0.10748   0.03397   0.66395   0.10798
H          H       0.13970   0.92092   0.68609   0.11592
H          H       0.85863   0.92206   0.82391   0.11572
H          H       0.85879   0.07874   0.82777   0.11646
H          H       0.13993   0.07690   0.67246   0.11537
H          H       0.07273   0.87760   0.52508   0.10165
H          H       0.92452   0.87733   0.97943   0.10198
H          H       0.92726   0.12255   0.98414   0.10206
H          H       0.07564   0.12302   0.52531   0.10241
H          H       0.04128   0.92058   0.51620   0.10000
H          H       0.95638   0.92012   0.98884   0.10153
H          H       0.95822   0.07931  -0.00231   0.10119
H          H       0.04327   0.08051   0.52127   0.10411
H          H       0.26437   0.79760   0.63342   0.10984
H          H       0.73648   0.79650   0.87932   0.10902
H          H       0.73707   0.20479   0.88803   0.10881
H          H       0.26530   0.20055   0.60666   0.10883
H          H       0.29817   0.75616   0.59900   0.10794
H          H       0.70308   0.75472   0.90810   0.10717
H          H       0.70320   0.24624   0.92082   0.10709
H          H       0.29918   0.24182   0.58649   0.10890
H          H       0.17677   0.77431   0.67995   0.10709
H          H       0.82468   0.77480   0.81582   0.10959
H          H       0.82523   0.22782   0.81199   0.10899
H          H       0.17682   0.22380   0.68184   0.10885
H          H       0.14409   0.81716   0.69510   0.10726
H          H       0.85635   0.81853   0.80069   0.10669
H          H       0.85731   0.18462   0.80102   0.10718
H          H       0.14397   0.18114   0.69811   0.10582
H          H       0.20403   0.87285   0.88926   0.12135
H          H       0.79388   0.87150   0.62363   0.12102
H          H       0.79492   0.12827   0.63659   0.11923
H          H       0.20621   0.12530   0.85644   0.12030
H          H       0.23677   0.82984   0.87648   0.10007
H          H       0.76226   0.82753   0.63620   0.09984
H          H       0.76274   0.17176   0.64484   0.10239
H          H       0.23911   0.16822   0.84360   0.10167
H          H       0.32204   0.72506   0.79495   0.09945
H          H       0.67891   0.72383   0.70778   0.10189
H          H       0.67944   0.27586   0.70393   0.09937
H          H       0.32322   0.27350   0.80175   0.09922
H          H       0.35620   0.68339   0.77265   0.10526
H          H       0.64463   0.68221   0.72884   0.10334
H          H       0.64525   0.31748   0.71671   0.10416
H          H       0.35697   0.31553   0.78360   0.10365
H          H       0.29630   0.62546   0.59425   0.12258
H          H       0.70529   0.62506   0.89312   0.12371
H          H       0.70368   0.37587   0.90605   0.12474
H          H       0.29670   0.37155   0.60703   0.12405
H          H       0.26241   0.66750   0.60908   0.11170
H          H       0.73952   0.66694   0.87535   0.11093
H          H       0.73792   0.33413   0.89403   0.11111
H          H       0.26297   0.32932   0.62203   0.11204
H          H       0.11786   0.85118   0.92943   0.06587
H          H       0.88042   0.85182   0.56668   0.06458
H          H       0.88191   0.14857   0.58479   0.06548
H          H       0.11959   0.14785   0.92477   0.06412
H          H       0.42549   0.37784   0.96035   0.09999
H          H       0.57205   0.37891   0.53067   0.10129
H          H       0.57338   0.62268   0.53184   0.10145
H          H       0.42887   0.62249   0.96829   0.10111
H          H       0.35998   0.42121   0.79951   0.11745
H          H       0.64026   0.42128   0.69014   0.11964
H          H       0.64054   0.57844   0.68281   0.11743
H          H       0.35993   0.57844   0.80287   0.11747
H          H       0.39148   0.46458   0.81465   0.10907
H          H       0.60866   0.46418   0.67158   0.10802
H          H       0.60850   0.53583   0.65855   0.10868
H          H       0.39168   0.53555   0.82080   0.10863
H          H       0.38359   0.34928   0.56286   0.06210
H          H       0.61776   0.35259   0.94176   0.06275
H          H       0.61860   0.64821   0.94493   0.06268
H          H       0.38246   0.64703   0.54750   0.06359
H          H       0.52331   0.57539   0.78493   0.10440
H          H       0.47657   0.57498   0.70819   0.10423
H          H       0.47644   0.42424   0.71131   0.10385
H          H       0.52277   0.42470   0.79289   0.10384
H          H       0.02222   0.92431   0.79057   0.10388
H          H       0.97543   0.92459   0.71523   0.10425
H          H       0.97678   0.07538   0.72057   0.10411
H          H       0.02375   0.07511   0.79306   0.10315
H          H       0.45723   0.42067   0.97545   0.10092
H          H       0.54086   0.42179   0.51160   0.09979
H          H       0.54201   0.57967   0.51309   0.10057
H          H       0.45951   0.57903   0.98496   0.10087
H          H       0.08882  -0.00047   0.88666   0.10506
H          H       0.90957   0.00028   0.63394   0.10635
H          H       0.41166   0.49910   0.60016   0.10636
H          H       0.58968   0.50063   0.87114   0.10603
C          C       0.02696   0.97242   0.29894   0.03321
C          C       0.97154   0.97265   0.21198   0.03647
C          C       0.97188   0.02789   0.21612   0.03234
C          C       0.02730   0.02761   0.30130   0.03497
C          C       0.01234   0.94563   0.27347  -0.13214
C          C       0.98603   0.94574   0.23214  -0.13673
C          C       0.98657   0.05469   0.24059  -0.13082
C          C       0.01295   0.05457   0.28079  -0.13746
C          C       0.05485   0.97252   0.33497   0.02780
C          C       0.94357   0.97307   0.17725   0.02673
C          C       0.94394   0.02785   0.18110   0.02802
C          C       0.05525   0.02723   0.33574   0.02595
C          C       0.07210   0.94553   0.34280   0.07584
C          C       0.92600   0.94631   0.16634   0.07889
C          C       0.92695   0.05495   0.17159   0.07630
C          C       0.07300   0.05398   0.34198   0.07711
C          C       0.10030   0.94515   0.25047  -0.12925
C          C       0.89780   0.94670   0.25845  -0.12961
C          C       0.89874   0.05580   0.26344  -0.12952
C          C       0.10078   0.05339   0.24390  -0.13005
C          C       0.11810   0.92116   0.25555  -0.10133
C          C       0.87973   0.92289   0.25176  -0.10228
C          C       0.88120   0.07987   0.25511  -0.10176
C          C       0.11908   0.07710   0.24658  -0.09960
C          C       0.10844   0.89629   0.35351   0.04637
C          C       0.88913   0.89736   0.15218   0.04830
C          C       0.89113   0.10435   0.15443   0.04695
C          C       0.11032   0.10262   0.34779   0.04723
C          C       0.08037   0.89633   0.44488  -0.12627
C          C       0.91715   0.89668   0.06028  -0.12780
C          C       0.91930   0.10397   0.06473  -0.12781
C          C       0.08260   0.10361   0.44399  -0.12729
C          C       0.06253   0.92051   0.43934  -0.13819
C          C       0.93523   0.92073   0.06681  -0.13890
C          C       0.93688   0.07968   0.07332  -0.13955
C          C       0.06425   0.07970   0.44112  -0.13963
C          C       0.25704   0.77640   0.17957  -0.13561
C          C       0.74227   0.77618   0.32391  -0.13384
C          C       0.74362   0.22484   0.32060  -0.13684
C          C       0.25701   0.22381   0.16842  -0.13252
C          C       0.27679   0.75276   0.16261  -0.13444
C          C       0.72314   0.75205   0.34008  -0.13672
C          C       0.72375   0.24839   0.33936  -0.13511
C          C       0.27623   0.24786   0.15508  -0.13404
C          C       0.26971   0.72457   0.22315   0.01323
C          C       0.73085   0.72372   0.27601   0.01441
C          C       0.73071   0.27670   0.28057   0.01265
C          C       0.26874   0.27594   0.22412   0.01286
C          C       0.24110   0.72094   0.31094   0.11773
C          C       0.75946   0.72025   0.18689   0.11492
C          C       0.75928   0.28055   0.19266   0.11463
C          C       0.24030   0.27901   0.31699   0.11382
C          C       0.22078   0.74518   0.32788   0.11283
C          C       0.77911   0.74497   0.17065   0.11383
C          C       0.77969   0.25640   0.17364   0.11471
C          C       0.22060   0.25427   0.33171   0.11249
C          C       0.22880   0.77361   0.25821   0.01350
C          C       0.77044   0.77361   0.24259   0.01383
C          C       0.77183   0.22787   0.24195   0.01402
C          C       0.22899   0.22601   0.25304   0.01391
C          C       0.20877   0.79863   0.27304   0.06294
C          C       0.79002   0.79890   0.22768   0.06165
C          C       0.79191   0.20290   0.22681   0.06244
C          C       0.20952   0.20056   0.26470   0.06430
C          C       0.29034   0.70007   0.20441   0.06249
C          C       0.71067   0.69894   0.29174   0.06294
C          C       0.71003   0.30118   0.29963   0.06075
C          C       0.28893   0.30079   0.20877   0.06267
C          C       0.18181   0.79502   0.23130  -0.10189
C          C       0.81714   0.79599   0.26726  -0.10039
C          C       0.81856   0.20612   0.27313  -0.10399
C          C       0.18265   0.20315   0.22120  -0.10577
C          C       0.16326   0.81894   0.24111  -0.17757
C          C       0.83521   0.82025   0.25937  -0.17735
C          C       0.83673   0.18191   0.26544  -0.17752
C          C       0.16479   0.17873   0.22725  -0.17832
C          C       0.17115   0.84731   0.29324   0.20509
C          C       0.82674   0.84819   0.21093   0.20357
C          C       0.82881   0.15376   0.21024   0.20460
C          C       0.17316   0.15097   0.27875   0.20388
C          C       0.19831   0.85109   0.33219  -0.16211
C          C       0.79952   0.85118   0.17223  -0.16121
C          C       0.80198   0.15039   0.16606  -0.16092
C          C       0.20025   0.14814   0.31928  -0.16285
C          C       0.21665   0.82708   0.32396  -0.12717
C          C       0.78163   0.82682   0.17886  -0.12850
C          C       0.78401   0.17467   0.17304  -0.13065
C          C       0.21795   0.17266   0.31394  -0.13056
C          C       0.31714   0.70442   0.24697  -0.12873
C          C       0.68401   0.70264   0.24717  -0.13310
C          C       0.68353   0.29707   0.25260  -0.12902
C          C       0.31603   0.29691   0.24702  -0.12945
C          C       0.33657   0.68119   0.23430  -0.18604
C          C       0.66487   0.67924   0.25783  -0.18594
C          C       0.66428   0.32045   0.26299  -0.18706
C          C       0.33511   0.32039   0.23674  -0.18930
C          C       0.32945   0.65274   0.17936   0.20416
C          C       0.67216   0.65133   0.31266   0.20483
C          C       0.67120   0.34875   0.32136   0.20078
C          C       0.32737   0.34864   0.18902   0.20369
C          C       0.30259   0.64832   0.13684  -0.15279
C          C       0.69885   0.64759   0.35777  -0.15552
C          C       0.69767   0.35285   0.36988  -0.15001
C          C       0.30026   0.35257   0.15020  -0.15426
C          C       0.28348   0.67163   0.14760  -0.10102
C          C       0.71775   0.67106   0.34838  -0.10089
C          C       0.71665   0.32943   0.36046  -0.10100
C          C       0.28149   0.32898   0.15807  -0.09988
C          C       0.12721   0.87110   0.36142   0.06689
C          C       0.87031   0.87214   0.14323   0.06791
C          C       0.87245   0.12945   0.14243   0.06787
C          C       0.12960   0.12753   0.35358   0.06856
C          C       0.44460   0.52766   0.16465   0.02725
C          C       0.55568   0.52763   0.32278   0.02586
C          C       0.55525   0.47295   0.32554   0.02786
C          C       0.44418   0.47299   0.16512   0.02758
C          C       0.47245   0.52792   0.20096   0.03334
C          C       0.52781   0.52789   0.28712   0.03383
C          C       0.52734   0.47271   0.28972   0.03365
C          C       0.47207   0.47277   0.20077   0.03373
C          C       0.48713   0.55478   0.22395  -0.13489
C          C       0.51348   0.55477   0.26460  -0.13370
C          C       0.51252   0.44589   0.26780  -0.13403
C          C       0.48635   0.44593   0.22435  -0.13407
C          C       0.42674   0.44609   0.15555   0.07747
C          C       0.57233   0.44610   0.33895   0.07743
C          C       0.57296   0.55454   0.33415   0.07738
C          C       0.42759   0.55459   0.15304   0.07769
C          C       0.43607   0.42085   0.05341  -0.13946
C          C       0.56230   0.42144   0.43742  -0.14017
C          C       0.56327   0.57965   0.43649  -0.13893
C          C       0.43792   0.57938   0.05677  -0.14077
C          C       0.41810   0.39681   0.04438  -0.12860
C          C       0.57994   0.39733   0.44857  -0.12954
C          C       0.58103   0.60379   0.44770  -0.12972
C          C       0.42057   0.60375   0.04648  -0.12928
C          C       0.39016   0.39717   0.13751   0.04846
C          C       0.60826   0.39707   0.36155   0.04581
C          C       0.60911   0.60355   0.35698   0.04712
C          C       0.39215   0.60401   0.13167   0.04877
C          C       0.38081   0.42216   0.24237  -0.10078
C          C       0.61840   0.42161   0.26203  -0.10231
C          C       0.61884   0.57868   0.25213  -0.10299
C          C       0.38167   0.57932   0.22905  -0.10334
C          C       0.39877   0.44602   0.25103  -0.12926
C          C       0.60081   0.44553   0.25135  -0.12862
C          C       0.60109   0.55475   0.24130  -0.12828
C          C       0.39904   0.55520   0.23951  -0.12827
C          C       0.37127   0.37219   0.12369   0.06741
C          C       0.62686   0.37204   0.37587   0.06716
C          C       0.62799   0.62842   0.37242   0.06502
C          C       0.37377   0.62928   0.11883   0.06706
C          C       0.01322   0.00006   0.27948   0.00487
C          C       0.98556   0.00019   0.23515   0.00450
C          C       0.06798  -0.00016   0.35211  -0.18221
C          C       0.93076   0.00055   0.16399  -0.18515
C          C       0.48613   0.50033   0.22211   0.00517
C          C       0.51375   0.50029   0.26684   0.00433
C          C       0.43139   0.50032   0.14888  -0.18352
C          C       0.56846   0.50032   0.33989  -0.18319
C          C       0.02683   0.97210   0.80000   0.03354
C          C       0.97148   0.97241   0.71278   0.03599
C          C       0.97189   0.02762   0.71538   0.03353
C          C       0.02732   0.02727   0.80125   0.03297
C          C       0.01211   0.94532   0.77542  -0.13214
C          C       0.98583   0.94547   0.73368  -0.13682
C          C       0.98682   0.05438   0.73706  -0.13387
C          C       0.01319   0.05421   0.77749  -0.13364
C          C       0.05468   0.97217   0.83664   0.02679
C          C       0.94358   0.97281   0.67725   0.02738
C          C       0.94388   0.02752   0.68130   0.02730
C          C       0.05515   0.02685   0.83753   0.02804
C          C       0.07194   0.94520   0.84384   0.07762
C          C       0.92613   0.94603   0.66518   0.07679
C          C       0.92662   0.05443   0.67341   0.07596
C          C       0.07275   0.05366   0.84429   0.07667
C          C       0.10024   0.94502   0.75308  -0.12981
C          C       0.89806   0.94598   0.75930  -0.13047
C          C       0.89823   0.05461   0.76265  -0.12875
C          C       0.10054   0.05323   0.74635  -0.13106
C          C       0.11808   0.92108   0.75830  -0.10113
C          C       0.88010   0.92219   0.74933  -0.10206
C          C       0.88050   0.07863   0.75695  -0.10090
C          C       0.11865   0.07708   0.74961  -0.09918
C          C       0.10842   0.89607   0.85491   0.04772
C          C       0.88959   0.89716   0.64526   0.04886
C          C       0.89044   0.10369   0.66150   0.04630
C          C       0.10957   0.10258   0.85045   0.04699
C          C       0.08017   0.89580   0.94305  -0.12772
C          C       0.91758   0.89681   0.55265  -0.12783
C          C       0.91866   0.10374   0.57281  -0.12579
C          C       0.08181   0.10342   0.94637  -0.12819
C          C       0.06227   0.91993   0.93760  -0.14005
C          C       0.93551   0.92086   0.56252  -0.13774
C          C       0.93642   0.07954   0.57855  -0.13855
C          C       0.06369   0.07930   0.94338  -0.13731
C          C       0.25709   0.77627   0.68621  -0.13430
C          C       0.74379   0.77515   0.82065  -0.13255
C          C       0.74400   0.22574   0.82868  -0.13250
C          C       0.25819   0.22168   0.66923  -0.13358
C          C       0.27660   0.75235   0.66648  -0.13464
C          C       0.72455   0.75114   0.83694  -0.13444
C          C       0.72448   0.24962   0.84775  -0.13416
C          C       0.27769   0.24549   0.65696  -0.13627
C          C       0.26928   0.72398   0.72343   0.01330
C          C       0.73200   0.72283   0.77165   0.01192
C          C       0.73156   0.27752   0.78280   0.01303
C          C       0.27041   0.27367   0.72536   0.01402
C          C       0.24055   0.72047   0.80995   0.11475
C          C       0.76054   0.71934   0.68064   0.11643
C          C       0.76000   0.28088   0.69198   0.11368
C          C       0.24177   0.27723   0.81424   0.11480
C          C       0.22051   0.74503   0.83033   0.11360
C          C       0.78037   0.74395   0.66499   0.11329
C          C       0.78010   0.25646   0.67344   0.11508
C          C       0.22179   0.25279   0.82716   0.11510
C          C       0.22881   0.77364   0.76430   0.01444
C          C       0.77194   0.77253   0.73905   0.01378
C          C       0.77198   0.22814   0.74430   0.01244
C          C       0.23004   0.22430   0.75114   0.01247
C          C       0.20888   0.79880   0.77996   0.06044
C          C       0.79138   0.79797   0.72506   0.06182
C          C       0.79180   0.20294   0.72801   0.06342
C          C       0.21017   0.19920   0.76381   0.06278
C          C       0.28980   0.69932   0.70352   0.06223
C          C       0.71158   0.69825   0.78961   0.06200
C          C       0.71097   0.30202   0.79893   0.06288
C          C       0.29079   0.29835   0.71178   0.06279
C          C       0.18234   0.79555   0.73196  -0.10163
C          C       0.81829   0.79566   0.76834  -0.10270
C          C       0.81892   0.20629   0.76774  -0.10140
C          C       0.18298   0.20255   0.72572  -0.10086
C          C       0.16396   0.81959   0.74081  -0.17873
C          C       0.83609   0.82018   0.75948  -0.18021
C          C       0.83696   0.18201   0.76140  -0.17864
C          C       0.16452   0.17860   0.73475  -0.17841
C          C       0.17151   0.84769   0.79898   0.20661
C          C       0.82749   0.84776   0.70661   0.20497
C          C       0.82848   0.15360   0.71370   0.20527
C          C       0.17268   0.15052   0.78283   0.20683
C          C       0.19828   0.85115   0.84408  -0.16387
C          C       0.80037   0.85026   0.66603  -0.16129
C          C       0.80131   0.15019   0.67446  -0.15936
C          C       0.20005   0.14696   0.81813  -0.16201
C          C       0.21650   0.82702   0.83601  -0.12566
C          C       0.78279   0.82565   0.67379  -0.12671
C          C       0.78343   0.17452   0.67992  -0.12856
C          C       0.21833   0.17101   0.81031  -0.12736
C          C       0.31672   0.70353   0.74482  -0.12850
C          C       0.68436   0.70245   0.75378  -0.12881
C          C       0.68438   0.29752   0.75382  -0.12820
C          C       0.31771   0.29468   0.75333  -0.12918
C          C       0.33599   0.68014   0.73230  -0.18678
C          C       0.66504   0.67920   0.76642  -0.18527
C          C       0.66505   0.32075   0.76217  -0.18531
C          C       0.33679   0.31820   0.74243  -0.18605
C          C       0.32866   0.65161   0.67957   0.20497
C          C       0.67256   0.65096   0.81541   0.20514
C          C       0.67192   0.34927   0.81731   0.20198
C          C       0.32932   0.34618   0.68918   0.20143
C          C       0.30177   0.64742   0.63697  -0.15293
C          C       0.69974   0.64681   0.85302  -0.15336
C          C       0.69856   0.35383   0.86270  -0.15341
C          C       0.30231   0.34991   0.64850  -0.14929
C          C       0.28283   0.67091   0.64660  -0.10239
C          C       0.71883   0.67012   0.84180  -0.09907
C          C       0.71767   0.33055   0.85485  -0.10086
C          C       0.28350   0.32636   0.65799  -0.10355
C          C       0.12739   0.87110   0.86430   0.06655
C          C       0.87086   0.87190   0.63549   0.06820
C          C       0.87195   0.12899   0.65152   0.06630
C          C       0.12875   0.12755   0.85638   0.06844
C          C       0.44491   0.52675   0.65885   0.02895
C          C       0.55552   0.52762   0.82491   0.02583
C          C       0.55533   0.47294   0.82914   0.02857
C          C       0.44501   0.47200   0.65770   0.02748
C          C       0.47251   0.52715   0.69919   0.03206
C          C       0.52763   0.52765   0.78937   0.03394
C          C       0.52742   0.47249   0.79340   0.03367
C          C       0.47250   0.47197   0.69951   0.03301
C          C       0.48686   0.55413   0.72441  -0.13101
C          C       0.51308   0.55438   0.76699  -0.13629
C          C       0.51274   0.44553   0.77272  -0.13087
C          C       0.48672   0.44528   0.72732  -0.13737
C          C       0.42779   0.44496   0.64712   0.07857
C          C       0.57253   0.44616   0.84212   0.07754
C          C       0.57281   0.55457   0.83555   0.07849
C          C       0.42768   0.55369   0.64969   0.07866
C          C       0.43777   0.41910   0.55253  -0.13758
C          C       0.56272   0.42142   0.94051  -0.14176
C          C       0.56323   0.57976   0.93751  -0.14116
C          C       0.43757   0.57874   0.55433  -0.14016
C          C       0.42014   0.39467   0.54629  -0.13040
C          C       0.58045   0.39732   0.94999  -0.12705
C          C       0.58117   0.60370   0.94998  -0.12822
C          C       0.41978   0.60280   0.54543  -0.12783
C          C       0.39186   0.39524   0.63394   0.04749
C          C       0.60865   0.39714   0.86115   0.04640
C          C       0.60931   0.60328   0.86024   0.04759
C          C       0.39147   0.60277   0.63260   0.04705
C          C       0.38174   0.42100   0.72925  -0.10049
C          C       0.61860   0.42176   0.76178  -0.10384
C          C       0.61892   0.57838   0.75532  -0.10060
C          C       0.38162   0.57809   0.73172  -0.10229
C          C       0.39937   0.44521   0.73575  -0.12913
C          C       0.60089   0.44563   0.75253  -0.12804
C          C       0.60100   0.55464   0.74333  -0.12987
C          C       0.39936   0.55416   0.74006  -0.13035
C          C       0.37346   0.36963   0.62555   0.06458
C          C       0.62746   0.37229   0.87499   0.06660
C          C       0.62822   0.62811   0.87645   0.06654
C          C       0.37273   0.62772   0.61831   0.06760
C          C       0.01318  -0.00024   0.77978   0.00543
C          C       0.98553  -0.00007   0.73533   0.00340
C          C       0.06781  -0.00053   0.85446  -0.18269
C          C       0.93073   0.00022   0.66390  -0.18344
C          C       0.48627   0.49968   0.72191   0.00442
C          C       0.51375   0.49993   0.76880   0.00458
C          C       0.43227   0.49928   0.63788  -0.18482
C          C       0.56849   0.50039   0.84159  -0.18298
S          S       0.80250   0.29790   0.02349   0.41283
S          S       0.19713   0.29503   0.49850   0.41300
S          S       0.19779   0.70405   0.48153   0.41251
S          S       0.80297   0.70365   0.01190   0.41152
S          S       0.80325   0.29749   0.51968   0.41359
S          S       0.19827   0.29407   0.98847   0.41277
S          S       0.19703   0.70370   0.97904   0.41111
S          S       0.80385   0.70275   0.50264   0.41376
N          N       0.15392   0.87235   0.29727  -0.27356
N          N       0.84365   0.87348   0.20930  -0.27517
N          N       0.84582   0.12864   0.20910  -0.27213
N          N       0.15603   0.12581   0.28254  -0.27450
N          N       0.65477   0.62654   0.31127  -0.27022
N          N       0.34693   0.62804   0.17823  -0.27133
N          N       0.34469   0.37350   0.19100  -0.27053
N          N       0.65382   0.37354   0.32057  -0.27040
N          N       0.80526   0.26362   0.07928  -0.35434
N          N       0.19516   0.26073   0.43244  -0.35355
N          N       0.19516   0.73815   0.42240  -0.35265
N          N       0.80479   0.73819   0.07373  -0.35134
N          N       0.76984   0.30549   0.11230  -0.34754
N          N       0.22928   0.30359   0.40675  -0.34826
N          N       0.23043   0.69622   0.39333  -0.34806
N          N       0.77067   0.69533   0.10163  -0.34891
N          N       0.15418   0.87265   0.80262  -0.27432
N          N       0.84426   0.87316   0.70295  -0.27418
N          N       0.84517   0.12824   0.71430  -0.27572
N          N       0.15525   0.12562   0.78742  -0.27462
N          N       0.65500   0.62630   0.81510  -0.27273
N          N       0.34599   0.62679   0.68143  -0.27111
N          N       0.34664   0.37115   0.68605  -0.26890
N          N       0.65431   0.37383   0.81584  -0.27018
N          N       0.80566   0.26328   0.57748  -0.35331
N          N       0.19613   0.25973   0.92385  -0.35204
N          N       0.19485   0.73814   0.92482  -0.35196
N          N       0.80591   0.73717   0.56638  -0.35247
N          N       0.77073   0.30557   0.60930  -0.34711
N          N       0.23078   0.30207   0.90133  -0.34743
N          N       0.22955   0.69560   0.88941  -0.34913
N          N       0.77153   0.69454   0.59300  -0.35073

