data_crystal

_audit_creation_method 'AiiDA-DDEC plugin'

_cell_length_a        47.74371
_cell_length_b        45.40468
_cell_length_c         8.01223

_cell_angle_alpha     89.31609
_cell_angle_beta     78.80759
_cell_angle_gamma     90.09109

_symmetry_space_group_name_Hall 'P 1'
_symmetry_space_group_name_H-M  'P 1'

loop_
_symmetry_equiv_pos_as_xyz
 'x,y,z'

loop_
_atom_site_label
_atom_site_type_symbol
_atom_site_fract_x
_atom_site_fract_y
_atom_site_fract_z
_atom_site_charge
H          H       0.10874   0.96413   0.15217   0.10807
H          H       0.88899   0.96535   0.34649   0.10847
H          H       0.89026   0.03777   0.36750   0.10840
H          H       0.10990   0.03594   0.17733   0.10912
H          H       0.14083   0.92175   0.17719   0.11663
H          H       0.85665   0.92377   0.31446   0.11993
H          H       0.85776   0.07987   0.34489   0.11697
H          H       0.14265   0.07728   0.20853   0.11576
H          H       0.07292   0.87540   0.02589   0.10272
H          H       0.92627   0.87959   0.47045   0.10288
H          H       0.92652   0.12243   0.49440   0.10294
H          H       0.07511   0.11786   0.03942   0.10276
H          H       0.04118   0.91799   0.00945   0.10266
H          H       0.95815   0.92179   0.49234   0.10132
H          H       0.95852   0.07988   0.50761   0.10215
H          H       0.04307   0.07571   0.01957   0.10077
H          H       0.18487   0.78064   0.22299   0.10587
H          H       0.81557   0.78133   0.26937   0.10558
H          H       0.81414   0.22164   0.28735   0.10328
H          H       0.18590   0.21861   0.22862   0.10463
H          H       0.14957   0.82047   0.22933   0.10705
H          H       0.85006   0.82223   0.26121   0.11002
H          H       0.84891   0.18159   0.29107   0.10933
H          H       0.15078   0.17836   0.24054   0.10950
H          H       0.20266   0.87830   0.45548   0.12364
H          H       0.79338   0.88033   0.06073   0.12358
H          H       0.79425   0.12212   0.08826   0.12418
H          H       0.20638   0.11997   0.44892   0.12404
H          H       0.23793   0.83824   0.45259   0.09473
H          H       0.75907   0.83921   0.06466   0.09453
H          H       0.75959   0.16253   0.08001   0.09553
H          H       0.24144   0.16058   0.44011   0.09459
H          H       0.33084   0.72845   0.36726   0.09187
H          H       0.66987   0.72707   0.13073   0.09093
H          H       0.66904   0.27360   0.13603   0.09259
H          H       0.33022   0.27452   0.36251   0.09190
H          H       0.36118   0.68409   0.33718   0.10805
H          H       0.63992   0.68222   0.15844   0.10632
H          H       0.63904   0.31819   0.15964   0.10618
H          H       0.35997   0.31961   0.32419   0.10634
H          H       0.29704   0.63651   0.14072   0.12462
H          H       0.70345   0.63489   0.36538   0.12390
H          H       0.70275   0.36597   0.35932   0.12480
H          H       0.29615   0.36451   0.10658   0.12449
H          H       0.26690   0.68123   0.16449   0.10565
H          H       0.73335   0.68006   0.34177   0.10610
H          H       0.73259   0.32093   0.34139   0.10713
H          H       0.26638   0.31907   0.14228   0.10557
H          H       0.11819   0.85328   0.43992   0.06594
H          H       0.87888   0.85742   0.04216   0.06591
H          H       0.87890   0.14777   0.07570   0.06500
H          H       0.12095   0.14551   0.46006   0.06582
H          H       0.42792   0.37711   0.47769   0.10160
H          H       0.57288   0.37650   0.00786   0.10272
H          H       0.57280   0.62073   0.00892   0.10154
H          H       0.42884   0.62238   0.48013   0.10172
H          H       0.35853   0.42040   0.31074   0.11693
H          H       0.63975   0.42063   0.16436   0.11709
H          H       0.64037   0.57980   0.17019   0.11714
H          H       0.35979   0.58119   0.33322   0.11776
H          H       0.38954   0.46404   0.32520   0.10866
H          H       0.60881   0.46464   0.15756   0.10833
H          H       0.60895   0.53620   0.15964   0.10807
H          H       0.39015   0.53682   0.33689   0.10915
H          H       0.38372   0.35092   0.07751   0.06371
H          H       0.61520   0.35000   0.40062   0.06417
H          H       0.61590   0.64961   0.40317   0.06352
H          H       0.38481   0.65163   0.09611   0.06366
H          H       0.52339   0.57507   0.27607   0.10495
H          H       0.47610   0.57531   0.20527   0.10386
H          H       0.47572   0.42555   0.20542   0.10496
H          H       0.52305   0.42537   0.27535   0.10411
H          H       0.02354   0.92609   0.27751   0.10382
H          H       0.97562   0.92661   0.21364   0.10555
H          H       0.97599   0.07636   0.23154   0.10459
H          H       0.02376   0.07577   0.29585   0.10548
H          H       0.45841   0.42110   0.48285   0.10221
H          H       0.54214   0.42037   0.00317   0.10243
H          H       0.54216   0.57695   0.00386   0.10028
H          H       0.45867   0.57800   0.48356   0.10153
H          H       0.09020  -0.00017   0.37400   0.10737
H          H       0.90822   0.00239   0.15022   0.10849
H          H       0.40880   0.50071   0.12295   0.10849
H          H       0.58952   0.49996   0.36929   0.10742
H          H       0.10948   0.96267   0.67216   0.10926
H          H       0.88979   0.96470   0.82928   0.10936
H          H       0.89097   0.03495   0.84878   0.10932
H          H       0.11071   0.03306   0.67553   0.10879
H          H       0.14168   0.92046   0.69611   0.11661
H          H       0.85735   0.92279   0.80060   0.11658
H          H       0.85855   0.07712   0.82916   0.11663
H          H       0.14328   0.07486   0.70199   0.11708
H          H       0.07311   0.87939   0.53025   0.10225
H          H       0.92453   0.88276   0.96490   0.10200
H          H       0.92453   0.12274   0.98812   0.10186
H          H       0.07431   0.12059   0.54207   0.10186
H          H       0.04163   0.92210   0.51089   0.10112
H          H       0.95661   0.92446   0.99232   0.09909
H          H       0.95656   0.08040   0.00512   0.10225
H          H       0.04196   0.07881   0.51799   0.10420
H          H       0.18518   0.77879   0.73672   0.10467
H          H       0.81451   0.78078   0.78142   0.10442
H          H       0.81473   0.21965   0.79562   0.10453
H          H       0.18614   0.21673   0.72065   0.10506
H          H       0.14981   0.81849   0.74096   0.10999
H          H       0.84933   0.82131   0.77449   0.10778
H          H       0.84960   0.17951   0.79576   0.10847
H          H       0.15133   0.17609   0.73103   0.10921
H          H       0.20466   0.87814   0.94052   0.12372
H          H       0.79524   0.87902   0.55032   0.12660
H          H       0.79607   0.12132   0.57509   0.12367
H          H       0.20571   0.11904   0.95733   0.12363
H          H       0.24020   0.83828   0.93821   0.09437
H          H       0.76051   0.83820   0.55347   0.09304
H          H       0.76133   0.16172   0.57119   0.09605
H          H       0.24039   0.15998   0.95114   0.09479
H          H       0.33159   0.72703   0.86973   0.09258
H          H       0.66943   0.72702   0.63118   0.09044
H          H       0.66978   0.27200   0.63721   0.09073
H          H       0.33024   0.27224   0.85547   0.09182
H          H       0.36206   0.68255   0.83630   0.10578
H          H       0.63962   0.68212   0.65707   0.10664
H          H       0.63973   0.31664   0.65946   0.10712
H          H       0.36046   0.31690   0.82157   0.10755
H          H       0.29820   0.63596   0.63098   0.12515
H          H       0.70359   0.63449   0.85857   0.12417
H          H       0.70332   0.36447   0.85932   0.12522
H          H       0.29609   0.36428   0.62242   0.12466
H          H       0.26801   0.68081   0.66010   0.10585
H          H       0.73338   0.67970   0.83632   0.10765
H          H       0.73318   0.31957   0.84216   0.10511
H          H       0.26598   0.31919   0.65109   0.10642
H          H       0.11942   0.85073   0.94317   0.06575
H          H       0.87987   0.85418   0.55320   0.06694
H          H       0.88059   0.14719   0.58224   0.06534
H          H       0.12092   0.14351   0.94960   0.06493
H          H       0.42753   0.37863   0.97354   0.10250
H          H       0.57137   0.37685   0.50411   0.10224
H          H       0.57199   0.62228   0.50840   0.10228
H          H       0.42747   0.62357   0.98054   0.10216
H          H       0.35896   0.41941   0.81253   0.11730
H          H       0.64033   0.41931   0.65544   0.11804
H          H       0.64075   0.57911   0.66259   0.11714
H          H       0.36029   0.58011   0.82728   0.11664
H          H       0.38993   0.46304   0.82461   0.10858
H          H       0.60920   0.46294   0.64558   0.10787
H          H       0.60969   0.53532   0.65424   0.10840
H          H       0.39050   0.53569   0.83413   0.10848
H          H       0.38414   0.34959   0.58094   0.06351
H          H       0.61624   0.34944   0.90198   0.06191
H          H       0.61614   0.64853   0.90217   0.06422
H          H       0.38535   0.65001   0.58518   0.06396
H          H       0.52338   0.57389   0.78309   0.10413
H          H       0.47604   0.57401   0.71385   0.10389
H          H       0.47625   0.42432   0.70618   0.10511
H          H       0.52362   0.42420   0.77561   0.10382
H          H       0.02300   0.92359   0.78659   0.10443
H          H       0.97582   0.92455   0.71556   0.10528
H          H       0.97700   0.07430   0.73278   0.10423
H          H       0.02473   0.07336   0.79792   0.10488
H          H       0.45803   0.42252   0.98199   0.10163
H          H       0.54078   0.42079   0.50102   0.10183
H          H       0.54120   0.57844   0.50384   0.10198
H          H       0.45738   0.57906   0.97955   0.10099
H          H       0.09059   0.99712   0.87818   0.10571
H          H       0.90995   0.00084   0.63478   0.10521
H          H       0.40947   0.49958   0.62113   0.10759
H          H       0.59066   0.49868   0.86046   0.10745
C          C       0.02759   0.97342   0.29166   0.03489
C          C       0.97125   0.97412   0.21575   0.03452
C          C       0.97140   0.02891   0.22299   0.03411
C          C       0.02770   0.02823   0.29982   0.03107
C          C       0.01291   0.94694   0.26668  -0.13560
C          C       0.98611   0.94727   0.23070  -0.13347
C          C       0.98632   0.05542   0.24459  -0.13418
C          C       0.01309   0.05510   0.28110  -0.13440
C          C       0.05578   0.97334   0.32451   0.02840
C          C       0.94282   0.97466   0.18605   0.02739
C          C       0.94301   0.02895   0.19350   0.02601
C          C       0.05592   0.02763   0.33287   0.02707
C          C       0.07300   0.94644   0.33258   0.07672
C          C       0.92530   0.94820   0.17092   0.07840
C          C       0.92570   0.05578   0.18587   0.07815
C          C       0.07351   0.05402   0.34766   0.07874
C          C       0.10124   0.94584   0.23840  -0.12981
C          C       0.89670   0.94750   0.26046  -0.13046
C          C       0.89754   0.05613   0.28150  -0.12949
C          C       0.10228   0.05413   0.26096  -0.12962
C          C       0.11914   0.92218   0.25064  -0.10097
C          C       0.87854   0.92430   0.24384  -0.10536
C          C       0.87938   0.07956   0.27041  -0.10150
C          C       0.12059   0.07719   0.27648  -0.10073
C          C       0.10932   0.89793   0.35701   0.04618
C          C       0.88828   0.90062   0.13678   0.04555
C          C       0.88879   0.10383   0.16351   0.04623
C          C       0.11084   0.10145   0.37856   0.04672
C          C       0.08090   0.89789   0.44616  -0.12817
C          C       0.91686   0.90075   0.05037  -0.12662
C          C       0.91708   0.10417   0.07243  -0.12845
C          C       0.08208   0.10202   0.46155  -0.12703
C          C       0.06309   0.92182   0.43477  -0.13975
C          C       0.93503   0.92415   0.06693  -0.14068
C          C       0.93522   0.08045   0.08289  -0.13894
C          C       0.06377   0.07862   0.44686  -0.14425
C          C       0.26427   0.78609   0.24188   0.02532
C          C       0.73496   0.78524   0.26347   0.02643
C          C       0.73445   0.21612   0.27344   0.02833
C          C       0.26586   0.21465   0.23781   0.02705
C          C       0.28455   0.76228   0.22608   0.03003
C          C       0.71500   0.76105   0.27657   0.02867
C          C       0.71436   0.23999   0.28387   0.02846
C          C       0.28550   0.23913   0.22069   0.02943
C          C       0.27738   0.73397   0.28931  -0.03580
C          C       0.72269   0.73308   0.21462  -0.03390
C          C       0.72195   0.26812   0.21915  -0.03459
C          C       0.27754   0.26719   0.28031  -0.03511
C          C       0.24852   0.73047   0.37853   0.11779
C          C       0.75170   0.73046   0.12732   0.11716
C          C       0.75090   0.27123   0.13095   0.11731
C          C       0.24866   0.26967   0.36988   0.11617
C          C       0.22812   0.75435   0.39421   0.11696
C          C       0.77173   0.75482   0.11218   0.11667
C          C       0.77098   0.24710   0.11767   0.11621
C          C       0.22899   0.24500   0.38897   0.11671
C          C       0.23579   0.78295   0.32297  -0.03276
C          C       0.76356   0.78305   0.18306  -0.03475
C          C       0.76297   0.21880   0.19238  -0.03615
C          C       0.23735   0.21676   0.31919  -0.03461
C          C       0.21418   0.80657   0.33576   0.06489
C          C       0.78462   0.80731   0.16933   0.06498
C          C       0.78424   0.19500   0.18439   0.06480
C          C       0.21626   0.19256   0.33342   0.06593
C          C       0.29668   0.70826   0.26712   0.06427
C          C       0.70374   0.70696   0.23500   0.06471
C          C       0.70290   0.29396   0.23792   0.06603
C          C       0.29625   0.29347   0.25436   0.06518
C          C       0.18857   0.80167   0.27863  -0.10094
C          C       0.81094   0.80270   0.21884  -0.09939
C          C       0.81008   0.20020   0.23810  -0.10086
C          C       0.19009   0.19738   0.28241  -0.10060
C          C       0.16857   0.82410   0.28256  -0.18224
C          C       0.83048   0.82568   0.21341  -0.18292
C          C       0.82980   0.17768   0.23946  -0.18041
C          C       0.17018   0.17473   0.29000  -0.18197
C          C       0.17363   0.85214   0.34381   0.20538
C          C       0.82419   0.85405   0.15866   0.20515
C          C       0.82415   0.14921   0.18655   0.20608
C          C       0.17591   0.14652   0.34965   0.20450
C          C       0.19902   0.85687   0.40422  -0.15482
C          C       0.79806   0.85858   0.10615  -0.15546
C          C       0.79839   0.14404   0.13117  -0.15629
C          C       0.20208   0.14168   0.40121  -0.15303
C          C       0.21875   0.83436   0.40205  -0.12210
C          C       0.77884   0.83550   0.10941  -0.11883
C          C       0.77898   0.16666   0.12780  -0.12063
C          C       0.22172   0.16443   0.39521  -0.12116
C          C       0.32365   0.70876   0.31243  -0.11906
C          C       0.67702   0.70727   0.18674  -0.11990
C          C       0.67617   0.29342   0.18992  -0.12028
C          C       0.32298   0.29384   0.30232  -0.12010
C          C       0.34086   0.68381   0.29498  -0.18352
C          C       0.65998   0.68208   0.20352  -0.18047
C          C       0.65914   0.31845   0.20429  -0.18131
C          C       0.33985   0.31913   0.27974  -0.18175
C          C       0.33140   0.65748   0.23301   0.20695
C          C       0.66930   0.65570   0.26845   0.20561
C          C       0.66853   0.34483   0.26596   0.20769
C          C       0.33027   0.34490   0.20947   0.20595
C          C       0.30425   0.65680   0.18982  -0.15697
C          C       0.69629   0.65518   0.31407  -0.15702
C          C       0.69553   0.34560   0.31132  -0.15806
C          C       0.30335   0.34471   0.16296  -0.15758
C          C       0.28736   0.68186   0.20464  -0.09919
C          C       0.71305   0.68048   0.29946  -0.09794
C          C       0.71225   0.32041   0.29973  -0.09857
C          C       0.28674   0.31928   0.18384  -0.09833
C          C       0.12830   0.87354   0.37898   0.06813
C          C       0.86907   0.87665   0.11274   0.06876
C          C       0.86935   0.12783   0.14335   0.06978
C          C       0.13040   0.12534   0.39827   0.06737
C          C       0.44335   0.52772   0.16704   0.02622
C          C       0.55538   0.52725   0.32146   0.02608
C          C       0.55529   0.47294   0.32034   0.02849
C          C       0.44330   0.47342   0.16578   0.02719
C          C       0.47156   0.52784   0.20026   0.03441
C          C       0.52738   0.52758   0.28503   0.03522
C          C       0.52732   0.47281   0.28369   0.03257
C          C       0.47148   0.47306   0.19952   0.03405
C          C       0.48637   0.55445   0.22135  -0.13326
C          C       0.51289   0.55431   0.26144  -0.13594
C          C       0.51270   0.44621   0.26015  -0.13602
C          C       0.48615   0.44632   0.22066  -0.13311
C          C       0.42617   0.44655   0.15469   0.07857
C          C       0.57242   0.44597   0.32863   0.07691
C          C       0.57269   0.55410   0.33092   0.07748
C          C       0.42624   0.55473   0.15955   0.07687
C          C       0.43653   0.42193   0.05744  -0.14000
C          C       0.56217   0.42068   0.42416  -0.13875
C          C       0.56262   0.57891   0.42727  -0.14010
C          C       0.43634   0.57967   0.06045  -0.13660
C          C       0.41924   0.39737   0.05124  -0.12890
C          C       0.57948   0.39606   0.42688  -0.12840
C          C       0.58009   0.60345   0.43086  -0.12834
C          C       0.41938   0.60462   0.06013  -0.12949
C          C       0.39088   0.39672   0.14102   0.04892
C          C       0.60766   0.39591   0.33448   0.04767
C          C       0.60835   0.60394   0.33914   0.04961
C          C       0.39159   0.60537   0.15777   0.04913
C          C       0.38030   0.42128   0.23831  -0.10034
C          C       0.61809   0.42111   0.23845  -0.09973
C          C       0.61864   0.57912   0.24326  -0.10202
C          C       0.38117   0.58036   0.25570  -0.10209
C          C       0.39766   0.44558   0.24508  -0.13155
C          C       0.60079   0.44557   0.23599  -0.12969
C          C       0.60111   0.55484   0.23910  -0.12847
C          C       0.39819   0.55564   0.25641  -0.12994
C          C       0.37299   0.37080   0.13568   0.06648
C          C       0.62563   0.37003   0.33843   0.06809
C          C       0.62643   0.62985   0.34223   0.06631
C          C       0.37405   0.63168   0.15725   0.06671
C          C       0.01356   0.00101   0.27713   0.00433
C          C       0.98544   0.00134   0.23789   0.00305
C          C       0.06894   0.00025   0.34406  -0.18290
C          C       0.92968   0.00200   0.17707  -0.18337
C          C       0.48551   0.50039   0.22035   0.00337
C          C       0.51337   0.50026   0.26366   0.00394
C          C       0.43013   0.50063   0.15200  -0.18477
C          C       0.56836   0.50003   0.33779  -0.18437
C          C       0.02780   0.97096   0.79725   0.03312
C          C       0.97200   0.97213   0.71287   0.03363
C          C       0.97249   0.02695   0.71997   0.03495
C          C       0.02846   0.02577   0.80084   0.03466
C          C       0.01285   0.94462   0.77322  -0.13526
C          C       0.98637   0.94517   0.73275  -0.13334
C          C       0.98733   0.05332   0.74497  -0.13526
C          C       0.01406   0.05276   0.78204  -0.13344
C          C       0.05589   0.97062   0.83172   0.02627
C          C       0.94395   0.97291   0.67727   0.02674
C          C       0.94441   0.02724   0.68522   0.02790
C          C       0.05666   0.02493   0.83375   0.02774
C          C       0.07298   0.94370   0.84121   0.07689
C          C       0.92638   0.94653   0.66156   0.07716
C          C       0.92714   0.05414   0.67811   0.07793
C          C       0.07440   0.05128   0.84597   0.07895
C          C       0.10165   0.94382   0.75291  -0.12740
C          C       0.89755   0.94634   0.74723  -0.12847
C          C       0.89861   0.05390   0.76835  -0.13076
C          C       0.10305   0.05143   0.75762  -0.13011
C          C       0.11964   0.92030   0.76446  -0.10220
C          C       0.87945   0.92300   0.73296  -0.10252
C          C       0.88047   0.07741   0.75899  -0.09910
C          C       0.12127   0.07473   0.77080  -0.10197
C          C       0.10961   0.89536   0.86398   0.04803
C          C       0.88949   0.89855   0.63307   0.04779
C          C       0.89021   0.10244   0.65948   0.04639
C          C       0.11145   0.09907   0.87210   0.04568
C          C       0.08088   0.89452   0.94750  -0.12981
C          C       0.91827   0.89819   0.55017  -0.12870
C          C       0.91881   0.10331   0.57349  -0.12770
C          C       0.08284   0.09941   0.95778  -0.12621
C          C       0.06291   0.91839   0.93705  -0.13847
C          C       0.93635   0.92185   0.56362  -0.14063
C          C       0.93693   0.07949   0.58204  -0.14163
C          C       0.06468   0.07581   0.94550  -0.14272
C          C       0.26540   0.78495   0.74181   0.02730
C          C       0.73512   0.78489   0.76080   0.02768
C          C       0.73550   0.21464   0.77411   0.02586
C          C       0.26526   0.21352   0.73696   0.02855
C          C       0.28564   0.76114   0.72731   0.02898
C          C       0.71504   0.76083   0.77409   0.02875
C          C       0.71537   0.23852   0.78590   0.02985
C          C       0.28491   0.23803   0.71733   0.02830
C          C       0.27841   0.73286   0.79074  -0.03333
C          C       0.72259   0.73284   0.71166  -0.03337
C          C       0.72281   0.26664   0.72058  -0.03498
C          C       0.27713   0.26610   0.77793  -0.03452
C          C       0.24957   0.72945   0.88042   0.11626
C          C       0.75156   0.73010   0.62359   0.11504
C          C       0.75177   0.26983   0.63253   0.11618
C          C       0.24829   0.26861   0.86830   0.11673
C          C       0.22929   0.75346   0.89716   0.11794
C          C       0.77169   0.75436   0.60865   0.11894
C          C       0.77201   0.24583   0.62001   0.11663
C          C       0.22857   0.24394   0.88860   0.11702
C          C       0.23697   0.78199   0.82450  -0.03719
C          C       0.76367   0.78251   0.68057  -0.03597
C          C       0.76407   0.21744   0.69378  -0.03458
C          C       0.23683   0.21564   0.81975  -0.03468
C          C       0.21542   0.80561   0.83623   0.06562
C          C       0.78489   0.80657   0.66870   0.06604
C          C       0.78540   0.19360   0.68423   0.06729
C          C       0.21578   0.19134   0.83521   0.06548
C          C       0.29765   0.70712   0.76727   0.06312
C          C       0.70355   0.70678   0.73244   0.06442
C          C       0.70366   0.29244   0.73822   0.06378
C          C       0.29603   0.29226   0.75413   0.06516
C          C       0.18927   0.80020   0.78636  -0.09777
C          C       0.81057   0.80193   0.72562  -0.10255
C          C       0.81095   0.19846   0.74207  -0.10104
C          C       0.19007   0.19573   0.77822  -0.10212
C          C       0.16919   0.82250   0.78968  -0.18148
C          C       0.83029   0.82469   0.72109  -0.18083
C          C       0.83071   0.17589   0.74137  -0.18197
C          C       0.17039   0.17289   0.78454  -0.18175
C          C       0.17467   0.85092   0.84402   0.20528
C          C       0.82485   0.85279   0.65892   0.20305
C          C       0.82546   0.14775   0.68210   0.20369
C          C       0.17596   0.14492   0.84807   0.20454
C          C       0.20070   0.85630   0.89581  -0.15320
C          C       0.79922   0.85742   0.60072  -0.15683
C          C       0.79995   0.14293   0.62316  -0.15529
C          C       0.20162   0.14056   0.90626  -0.15441
C          C       0.22055   0.83393   0.89372  -0.12008
C          C       0.77980   0.83454   0.60334  -0.11834
C          C       0.78049   0.16560   0.62190  -0.12029
C          C       0.22101   0.16352   0.90192  -0.12055
C          C       0.32454   0.70743   0.81330  -0.11833
C          C       0.67671   0.70713   0.68558  -0.11832
C          C       0.67690   0.29188   0.69048  -0.11911
C          C       0.32303   0.29197   0.79902  -0.12033
C          C       0.34175   0.68247   0.79379  -0.18200
C          C       0.65974   0.68189   0.70152  -0.18160
C          C       0.65986   0.31693   0.70390  -0.18347
C          C       0.34016   0.31709   0.77914  -0.18203
C          C       0.33230   0.65635   0.72926   0.20630
C          C       0.66927   0.65540   0.76402   0.20549
C          C       0.66930   0.34343   0.76401   0.20745
C          C       0.33061   0.34343   0.71500   0.20814
C          C       0.30528   0.65595   0.68393  -0.15879
C          C       0.69628   0.65489   0.80924  -0.15762
C          C       0.69620   0.34413   0.81048  -0.15912
C          C       0.30337   0.34395   0.67283  -0.15804
C          C       0.28841   0.68103   0.70109  -0.09746
C          C       0.71297   0.68023   0.79539  -0.09868
C          C       0.71293   0.31897   0.79946  -0.09749
C          C       0.28653   0.31869   0.69027  -0.09852
C          C       0.12900   0.87131   0.88377   0.06623
C          C       0.87020   0.87431   0.61426   0.06453
C          C       0.87085   0.12668   0.64183   0.06682
C          C       0.13073   0.12327   0.89076   0.06974
C          C       0.44386   0.52647   0.66813   0.02834
C          C       0.55613   0.52607   0.81861   0.02745
C          C       0.55607   0.47179   0.81644   0.02597
C          C       0.44380   0.47219   0.66575   0.02511
C          C       0.47192   0.52659   0.70320   0.03255
C          C       0.52789   0.52640   0.78566   0.03338
C          C       0.52790   0.47164   0.78285   0.03389
C          C       0.47193   0.47183   0.70038   0.03537
C          C       0.48651   0.55317   0.72725  -0.13456
C          C       0.51310   0.55311   0.76616  -0.13287
C          C       0.51321   0.44503   0.76065  -0.13354
C          C       0.48663   0.44511   0.72150  -0.13536
C          C       0.42661   0.44536   0.65469   0.07972
C          C       0.57331   0.44488   0.82402   0.07728
C          C       0.57346   0.55289   0.82803   0.07780
C          C       0.42694   0.55357   0.65978   0.07613
C          C       0.43692   0.42060   0.55848  -0.14168
C          C       0.56336   0.41999   0.92400  -0.13796
C          C       0.56347   0.57753   0.92600  -0.13892
C          C       0.43739   0.57853   0.56185  -0.13822
C          C       0.41961   0.39599   0.55414  -0.12641
C          C       0.58074   0.39543   0.92749  -0.12957
C          C       0.58085   0.60211   0.92954  -0.12632
C          C       0.42047   0.60344   0.55902  -0.12652
C          C       0.39127   0.39540   0.64438   0.04762
C          C       0.60872   0.39505   0.83188   0.04872
C          C       0.60893   0.60291   0.83544   0.04695
C          C       0.39246   0.60417   0.65378   0.04614
C          C       0.38072   0.42017   0.73992  -0.10020
C          C       0.61884   0.41991   0.73181  -0.10194
C          C       0.61918   0.57825   0.73790  -0.10060
C          C       0.38181   0.57923   0.75154  -0.09837
C          C       0.39808   0.44452   0.74500  -0.13054
C          C       0.60143   0.44424   0.72791  -0.12864
C          C       0.60178   0.55383   0.73456  -0.13079
C          C       0.39873   0.55450   0.75418  -0.12988
C          C       0.37343   0.36937   0.64071   0.06632
C          C       0.62670   0.36918   0.83651   0.06924
C          C       0.62674   0.62901   0.83859   0.06817
C          C       0.37480   0.63034   0.65071   0.06828
C          C       0.01412   0.99865   0.77914   0.00475
C          C       0.98622   0.99924   0.73666   0.00326
C          C       0.06935   0.99752   0.84805  -0.18279
C          C       0.93116   0.00036   0.66533  -0.18346
C          C       0.48593   0.49915   0.72204   0.00368
C          C       0.51387   0.49908   0.76417   0.00420
C          C       0.43070   0.49942   0.65146  -0.18281
C          C       0.56927   0.49886   0.83217  -0.18284
S          S       0.79579   0.28695   0.46378   0.41224
S          S       0.20424   0.28469   0.03790   0.41381
S          S       0.20569   0.71185   0.04899   0.41428
S          S       0.79573   0.71370   0.45688   0.41330
S          S       0.79506   0.28817   0.96272   0.41403
S          S       0.20454   0.28563   0.53898   0.41323
S          S       0.20461   0.71270   0.54593   0.41335
S          S       0.79587   0.71415   0.96058   0.41385
N          N       0.15564   0.87611   0.33404  -0.27283
N          N       0.84188   0.87826   0.16804  -0.27120
N          N       0.84218   0.12535   0.19753  -0.27369
N          N       0.15760   0.12260   0.34715  -0.27220
N          N       0.65341   0.62962   0.27847  -0.27035
N          N       0.34716   0.63145   0.22299  -0.27122
N          N       0.34592   0.37111   0.19631  -0.27046
N          N       0.65258   0.37070   0.27417  -0.27290
N          N       0.79705   0.25407   0.02484  -0.34397
N          N       0.20299   0.25137   0.48303  -0.34369
N          N       0.20215   0.74690   0.48662  -0.34372
N          N       0.79782   0.74816   0.02018  -0.34401
N          N       0.76210   0.29594   0.04725  -0.33743
N          N       0.23722   0.29422   0.44998  -0.33756
N          N       0.23764   0.70547   0.46031  -0.33978
N          N       0.76293   0.70599   0.04554  -0.33921
N          N       0.15627   0.87459   0.83732  -0.27326
N          N       0.84295   0.87681   0.66398  -0.27031
N          N       0.84357   0.12379   0.68958  -0.27197
N          N       0.15802   0.12073   0.84351  -0.27375
N          N       0.65361   0.62920   0.77236  -0.27112
N          N       0.34804   0.63030   0.71938  -0.26909
N          N       0.34643   0.36953   0.70353  -0.27120
N          N       0.65354   0.36945   0.76967  -0.27061
N          N       0.79805   0.25296   0.52732  -0.34196
N          N       0.20260   0.25041   0.98275  -0.34213
N          N       0.20337   0.74612   0.99068  -0.34491
N          N       0.79777   0.74769   0.51655  -0.34638
N          N       0.76278   0.29453   0.54797  -0.33781
N          N       0.23690   0.29319   0.94823  -0.33932
N          N       0.23861   0.70446   0.96181  -0.33616
N          N       0.76275   0.70561   0.54175  -0.33717
Cl         Cl      0.27611   0.81942   0.14595  -0.02929
Cl         Cl      0.72249   0.81775   0.36195  -0.02992
Cl         Cl      0.72243   0.18350   0.37763  -0.03099
Cl         Cl      0.27846   0.18199   0.14191  -0.03031
Cl         Cl      0.31883   0.76942   0.11483  -0.03472
Cl         Cl      0.68026   0.76740   0.38133  -0.03221
Cl         Cl      0.67971   0.23303   0.38985  -0.03137
Cl         Cl      0.32009   0.23310   0.11255  -0.03312
Cl         Cl      0.27710   0.81785   0.63982  -0.02938
Cl         Cl      0.72300   0.81753   0.85875  -0.03090
Cl         Cl      0.72332   0.18168   0.87350  -0.02963
Cl         Cl      0.27770   0.18061   0.64381  -0.03033
Cl         Cl      0.31998   0.76823   0.61692  -0.03295
Cl         Cl      0.68047   0.76733   0.88106  -0.03234
Cl         Cl      0.68083   0.23171   0.89417  -0.03336
Cl         Cl      0.31922   0.23194   0.60511  -0.03283

