data_crystal

_audit_creation_method 'AiiDA-DDEC plugin'

_cell_length_a        18.43665
_cell_length_b        18.45210
_cell_length_c         7.99393

_cell_angle_alpha     98.18785
_cell_angle_beta     122.74501
_cell_angle_gamma     121.21616

_symmetry_space_group_name_Hall 'P 1'
_symmetry_space_group_name_H-M  'P 1'

loop_
_symmetry_equiv_pos_as_xyz
 'x,y,z'

loop_
_atom_site_label
_atom_site_type_symbol
_atom_site_fract_x
_atom_site_fract_y
_atom_site_fract_z
_atom_site_charge
H          H       0.95323   0.17971   0.90430   0.10982
H          H       0.86504   0.24521   0.89992   0.11318
H          H       0.74978   0.08135   0.16961   0.11850
H          H       0.83416   0.01040   0.16116   0.11338
H          H       0.83351   0.31707   0.01076   0.06675
H          H       0.59076   0.18312   0.00030   0.11245
H          H       0.83816   0.84217   0.13024   0.11322
H          H       0.80077   0.70354   0.19182   0.11654
H          H       0.93293   0.66055   0.92151   0.11520
H          H       0.97180   0.80125   0.86121   0.10922
H          H       0.67569   0.53288   0.95681   0.06762
H          H       0.82275   0.43944   0.02660   0.11531
H          H       0.17009   0.00114   0.98097   0.10776
H          H       0.31272   0.07310   0.94756   0.11113
H          H       0.24466   0.25487   0.77438   0.12206
H          H       0.09863   0.18045   0.80835   0.11133
H          H       0.44550   0.16199   0.98368   0.06417
H          H       0.55165   0.39286   0.96129   0.11550
H          H       0.67933   0.53804   0.46758   0.10859
H          H       0.60517   0.61406   0.49595   0.11396
H          H       0.37694   0.37021   0.50059   0.12575
H          H       0.44803   0.29024   0.45854   0.11283
H          H       0.49315   0.63238   0.42142   0.07298
H          H       0.29481   0.52376   0.52917   0.11613
H          H       0.45832   0.13168   0.45274   0.11175
H          H       0.38399   0.97140   0.43294   0.11418
H          H       0.58010   0.96676   0.30210   0.12498
H          H       0.65898   0.13172   0.33186   0.11147
H          H       0.33905   0.84914   0.42203   0.06917
H          H       0.47798   0.75166   0.43458   0.12076
H          H       0.90198   0.35508   0.60214   0.11237
H          H       0.05808   0.43927   0.60192   0.11412
H          H       0.04869   0.66783   0.59797   0.12579
H          H       0.89463   0.58407   0.60970   0.10962
H          H       0.14758   0.49604   0.51287   0.06887
H          H       0.23975   0.72270   0.46966   0.11782
C          C       0.94186   0.92070   0.97755   0.37480
C          C       0.89902   0.09064   0.03082  -0.00855
C          C       0.90911   0.15913   0.96356  -0.09449
C          C       0.86064   0.19658   0.96465  -0.18158
C          C       0.80212   0.16790   0.03920   0.21104
C          C       0.79505   0.10172   0.11264  -0.16021
C          C       0.84213   0.06301   0.10805  -0.09536
C          C       0.76925   0.27343   0.02180   0.08746
C          C       0.71159   0.30662   0.01261   0.05762
C          C       0.61650   0.25016   0.99476  -0.13459
C          C       0.04353   0.04089   0.93109   0.37229
C          C       0.90912   0.83203   0.99436  -0.01464
C          C       0.85911   0.80260   0.08484  -0.08976
C          C       0.83750   0.72450   0.11792  -0.18027
C          C       0.86358   0.67231   0.05806   0.21732
C          C       0.91438   0.70208   0.96937  -0.16113
C          C       0.93487   0.77955   0.93461  -0.10107
C          C       0.73792   0.52380   0.01585   0.08131
C          C       0.69686   0.43015   0.00766   0.05882
C          C       0.75058   0.39568   0.01691  -0.12442
C          C       0.94214   0.04550   0.00596   0.37483
C          C       0.12460   0.08528   0.89803  -0.00374
C          C       0.18568   0.05579   0.93276  -0.09337
C          C       0.26652   0.09725   0.91426  -0.16650
C          C       0.29035   0.17148   0.86122   0.21722
C          C       0.22590   0.19821   0.81723  -0.15214
C          C       0.14529   0.15688   0.83770  -0.10207
C          C       0.45310   0.21623   0.93460   0.08436
C          C       0.55592   0.27898   0.96649   0.05942
C          C       0.59773   0.37015   0.97606  -0.12677
C          C       0.62711   0.24968   0.46072   0.35463
C          C       0.57030   0.41075   0.46709  -0.00464
C          C       0.61150   0.50065   0.47034  -0.08034
C          C       0.56902   0.54254   0.48471  -0.17783
C          C       0.48398   0.49539   0.49679   0.20839
C          C       0.44074   0.40405   0.48685  -0.16050
C          C       0.48075   0.36058   0.46574  -0.09025
C          C       0.44725   0.59934   0.47545   0.08145
C          C       0.39313   0.63409   0.48356   0.05636
C          C       0.31343   0.58637   0.50812  -0.13797
C          C       0.78238   0.40315   0.56766   0.37117
C          C       0.56772   0.14481   0.40493  -0.01157
C          C       0.48401   0.09484   0.41875  -0.09082
C          C       0.44225   0.00450   0.40603  -0.17074
C          C       0.47952   0.95888   0.37198   0.21745
C          C       0.55421   0.00371   0.33540  -0.14842
C          C       0.59863   0.09589   0.35364  -0.10509
C          C       0.38435   0.82900   0.41553   0.08794
C          C       0.36207   0.74670   0.44834   0.06187
C          C       0.41684   0.71385   0.45398  -0.13920
C          C       0.62739   0.37464   0.48649   0.36956
C          C       0.88986   0.46499   0.61006  -0.00688
C          C       0.93867   0.42623   0.61190  -0.08507
C          C       0.02481   0.47301   0.60721  -0.17482
C          C       0.06342   0.55958   0.59613   0.21272
C          C       0.01924   0.60160   0.60790  -0.15086
C          C       0.93393   0.55522   0.61530  -0.09799
C          C       0.17653   0.56826   0.53002   0.08099
C          C       0.25901   0.61876   0.50452   0.06021
C          C       0.28397   0.69929   0.47471  -0.13678
N          N       0.00727   0.95495   0.92728  -0.41833
N          N       0.74581   0.19749   0.03973  -0.30096
N          N       0.01253   0.08865   0.96822  -0.41765
N          N       0.83789   0.58917   0.07395  -0.27808
N          N       0.90678   0.96324   0.01760  -0.41977
N          N       0.37983   0.22714   0.86368  -0.30236
N          N       0.73461   0.30989   0.53054  -0.42333
N          N       0.43696   0.53183   0.51899  -0.29273
N          N       0.73312   0.43940   0.55042  -0.41014
N          N       0.45314   0.87454   0.38430  -0.28885
N          N       0.57085   0.27900   0.44002  -0.41258
N          N       0.14138   0.60728   0.56885  -0.28831

