data_crystal

_audit_creation_method 'AiiDA-DDEC plugin'

_cell_length_a        33.55932
_cell_length_b        34.73847
_cell_length_c         7.44134

_cell_angle_alpha     88.11984
_cell_angle_beta     71.05721
_cell_angle_gamma     88.95784

_symmetry_space_group_name_Hall 'P 1'
_symmetry_space_group_name_H-M  'P 1'

loop_
_symmetry_equiv_pos_as_xyz
 'x,y,z'

loop_
_atom_site_label
_atom_site_type_symbol
_atom_site_fract_x
_atom_site_fract_y
_atom_site_fract_z
_atom_site_charge
H          H       0.82360   0.30587   0.55778   0.10607
H          H       0.71682   0.37317   0.52896   0.11747
H          H       0.80731   0.93320   0.35519   0.11797
H          H       0.71046   0.84929   0.41744   0.10393
H          H       0.07732   0.72173   0.28143   0.10736
H          H       0.00429   0.71487   0.28622   0.10754
H          H       0.08462   0.53117   0.50285   0.10941
H          H       0.01120   0.52456   0.51761   0.10867
H          H       0.90292   0.61333   0.46863   0.10877
H          H       0.17857   0.63706   0.42319   0.11494
H          H       0.15053   0.53468   0.20741   0.11380
H          H       0.20069   0.48170   0.21764   0.11433
H          H       0.22409   0.53414   0.68895   0.11464
H          H       0.17395   0.58724   0.67860   0.11670
H          H       0.20578   0.68454   0.21448   0.10421
H          H       0.24250   0.74516   0.22166   0.10463
H          H       0.12569   0.79596   0.55900   0.11410
H          H       0.08891   0.73416   0.56190   0.10923
H          H       0.90940   0.55586   0.29230   0.11294
H          H       0.86959   0.49518   0.34420   0.11438
H          H       0.91296   0.46478   0.81468   0.12246
H          H       0.95200   0.52620   0.76617   0.11575
H          H       0.90535   0.65217   0.18596   0.11083
H          H       0.85328   0.70220   0.16091   0.12166
H          H       0.89314   0.77413   0.52942   0.11367
H          H       0.94345   0.72349   0.56190   0.10999
H          H       0.20636   0.43039   0.42802   0.06598
H          H       0.31573   0.44609   0.44533   0.11633
H          H       0.36194   0.39345   0.50512   0.11035
H          H       0.26401   0.31105   0.56513   0.11694
H          H       0.21764   0.36379   0.50638   0.10630
H          H       0.81351   0.46572   0.57158   0.06714
H          H       0.85989   0.36582   0.59569   0.11678
H          H       0.31531   0.84630   0.05854   0.10716
H          H       0.21334   0.86987   0.57175   0.10117
H          H       0.75295   0.43299   0.56807   0.11088
H          H       0.25326   0.80666   0.14315   0.06093
H          H       0.86105   0.88069   0.29084   0.10436
H          H       0.76431   0.79664   0.35522   0.11566
H          H       0.87955   0.81566   0.29639   0.06256
H          H       0.35628   0.90062   0.12269   0.11521
H          H       0.25415   0.92414   0.63386   0.11123
H          H       0.76646   0.27377   0.51462   0.06342
H          H       0.69038   0.91700   0.48485   0.06892
H          H       0.37634   0.32829   0.55417   0.06631
H          H       0.41579   0.28085   0.34745   0.11160
H          H       0.46486   0.22559   0.32138   0.11155
H          H       0.36997   0.16426   0.76326   0.11014
H          H       0.32034   0.21968   0.78801   0.11880
H          H       0.34688   0.00104   0.64281   0.11349
H          H       0.38654   0.05685   0.68406   0.11252
H          H       0.47917   0.03928   0.13611   0.11680
H          H       0.43831   0.98314   0.09232   0.11927
H          H       0.39983   0.12074   0.48661   0.11644
H          H       0.56233   0.21883   0.58945   0.10877
H          H       0.48867   0.21661   0.60547   0.11079
H          H       0.51192   0.02762   0.38037   0.10941
H          H       0.58527   0.02946   0.38066   0.11097
H          H       0.67813   0.12775   0.41844   0.10353
H          H       0.66923   0.98013   0.68674   0.11388
H          H       0.62308   0.03783   0.70469   0.11570
H          H       0.68871   0.06590   0.11673   0.11892
H          H       0.73578   0.00918   0.10095   0.11711
H          H       0.73008   0.22612   0.58723   0.10397
H          H       0.68964   0.16916   0.58327   0.11085
H          H       0.60950   0.23675   0.34234   0.10454
H          H       0.64882   0.29497   0.36152   0.11493
H          H       0.31380   0.96323   0.55270   0.06511
H          H       0.21252   0.19770   0.08262   0.10807
H          H       0.11217   0.26591   0.99264   0.11620
H          H       0.22351   0.82907   0.80230   0.11025
H          H       0.11948   0.75042   0.94635   0.10475
H          H       0.47809   0.61226   0.73501   0.11439
H          H       0.40309   0.60627   0.76946   0.10817
H          H       0.49325   0.41757   0.81810   0.10699
H          H       0.41942   0.41202   0.84481   0.10700
H          H       0.30402   0.50353   0.94631   0.11007
H          H       0.58526   0.52429   0.79320   0.11201
H          H       0.56181   0.41850   0.58848   0.10927
H          H       0.60815   0.36599   0.63952   0.11900
H          H       0.62046   0.42402   0.12027   0.11933
H          H       0.57264   0.47622   0.07315   0.11444
H          H       0.60459   0.57934   0.53442   0.11153
H          H       0.64215   0.63981   0.54200   0.11484
H          H       0.53910   0.67578   0.02375   0.12095
H          H       0.50174   0.61451   0.02027   0.11415
H          H       0.29239   0.45590   0.80854   0.10407
H          H       0.25046   0.39804   0.86526   0.10124
H          H       0.33121   0.34362   0.14485   0.11637
H          H       0.37283   0.40312   0.09705   0.10456
H          H       0.30327   0.54502   0.66496   0.11142
H          H       0.25312   0.59736   0.64956   0.11493
H          H       0.29577   0.66336   0.03040   0.11338
H          H       0.34509   0.61062   0.05002   0.11353
H          H       0.61028   0.31626   0.86685   0.06687
H          H       0.71080   0.33499   0.98020   0.11663
H          H       0.75840   0.28239   0.02503   0.10825
H          H       0.67193   0.19776   0.96462   0.11574
H          H       0.62578   0.25029   0.90625   0.11052
H          H       0.20978   0.35766   0.03154   0.06324
H          H       0.25200   0.25775   0.09241   0.11878
H          H       0.73518   0.70324   0.71982   0.10958
H          H       0.61995   0.76871   0.84131   0.11588
H          H       0.15175   0.32586   0.00101   0.10623
H          H       0.67271   0.67062   0.73813   0.06778
H          H       0.27356   0.77314   0.75201   0.10309
H          H       0.16942   0.69463   0.89524   0.11756
H          H       0.28744   0.70664   0.77460   0.06304
H          H       0.77415   0.76250   0.74365   0.12047
H          H       0.65889   0.82812   0.86477   0.10344
H          H       0.15426   0.16561   0.04485   0.06843
H          H       0.10480   0.81625   0.94551   0.06155
H          H       0.77866   0.21561   0.01552   0.06733
H          H       0.81249   0.16250   0.75152   0.11191
H          H       0.86161   0.10674   0.71796   0.11504
H          H       0.78126   0.05788   0.24664   0.11583
H          H       0.73154   0.11245   0.27536   0.10722
H          H       0.74279   0.89647   0.02079   0.10283
H          H       0.77933   0.95328   0.06965   0.09086
H          H       0.89464   0.91361   0.66196   0.11042
H          H       0.85852   0.85334   0.63354   0.10460
H          H       0.80529   0.00719   0.91302   0.11138
H          H       0.96337   0.11013   0.02346   0.11124
H          H       0.89024   0.10620   0.02327   0.10975
H          H       0.91242   0.91270   0.91958   0.10413
H          H       0.98473   0.91627   0.92402   0.10526
H          H       0.07682   0.01986   0.94028   0.11227
H          H       0.07263   0.86419   0.13447   0.11205
H          H       0.01952   0.91608   0.16193   0.11324
H          H       0.10269   0.97343   0.66449   0.11266
H          H       0.15591   0.92089   0.63447   0.12220
H          H       0.09648   0.12981   0.22543   0.11415
H          H       0.05912   0.06965   0.21027   0.11464
H          H       0.02640   0.11720   0.73541   0.11193
H          H       0.06240   0.17822   0.75547   0.12236
H          H       0.72024   0.86044   0.84679   0.05946
C          C       0.80826   0.33385   0.56021  -0.13650
C          C       0.76804   0.33572   0.53747   0.06257
C          C       0.74809   0.37193   0.54292  -0.10106
C          C       0.76838   0.40505   0.56504  -0.12938
C          C       0.74828   0.30029   0.51065   0.06397
C          C       0.72368   0.92543   0.42542   0.06687
C          C       0.75528   0.89464   0.39591   0.05640
C          C       0.06101   0.69461   0.32769  -0.14194
C          C       0.02030   0.69079   0.33073  -0.13846
C          C       0.99802   0.65545   0.38968   0.02723
C          C       0.02079   0.62227   0.42521   0.00013
C          C       0.06393   0.62607   0.41561  -0.00021
C          C       0.08337   0.66322   0.38101   0.02632
C          C       0.08753   0.59278   0.44203   0.02430
C          C       0.06695   0.55636   0.48028  -0.13329
C          C       0.02568   0.55277   0.49146  -0.13610
C          C       0.00088   0.58531   0.46827   0.02826
C          C       0.95496   0.65172   0.40490   0.02323
C          C       0.93628   0.61547   0.45083  -0.19477
C          C       0.95770   0.58232   0.48245   0.02092
C          C       0.12445   0.66724   0.39381   0.02398
C          C       0.14678   0.63405   0.41756  -0.18418
C          C       0.13010   0.59710   0.43406   0.02392
C          C       0.14459   0.70486   0.38603   0.06243
C          C       0.15783   0.56413   0.44550   0.06511
C          C       0.92820   0.68409   0.37589   0.05895
C          C       0.93399   0.54574   0.52399   0.06057
C          C       0.16571   0.53393   0.31643  -0.12549
C          C       0.19367   0.50410   0.32266  -0.18290
C          C       0.21448   0.50362   0.45957   0.20103
C          C       0.20761   0.53439   0.58496  -0.16373
C          C       0.17951   0.56394   0.57879  -0.13248
C          C       0.18814   0.70883   0.29148  -0.11862
C          C       0.20864   0.74315   0.29185  -0.16816
C          C       0.18612   0.77520   0.38631   0.20557
C          C       0.14259   0.77134   0.48232  -0.15630
C          C       0.12223   0.73694   0.48187  -0.13530
C          C       0.90944   0.53645   0.40994  -0.13016
C          C       0.88663   0.50246   0.44013  -0.18498
C          C       0.88745   0.47606   0.58699   0.20202
C          C       0.91208   0.48501   0.70135  -0.16774
C          C       0.93433   0.51944   0.67204  -0.13459
C          C       0.90237   0.67883   0.26240  -0.12995
C          C       0.87352   0.70685   0.24628  -0.16573
C          C       0.87033   0.74212   0.33847   0.20138
C          C       0.89650   0.74781   0.45022  -0.18714
C          C       0.92473   0.71923   0.46905  -0.12583
C          C       0.23539   0.43918   0.45329   0.07132
C          C       0.26383   0.40838   0.47371   0.05952
C          C       0.30488   0.41646   0.47097  -0.10192
C          C       0.33034   0.38713   0.50406  -0.11733
C          C       0.31591   0.34890   0.53767   0.06443
C          C       0.27485   0.34065   0.53907  -0.10389
C          C       0.24933   0.37006   0.50617  -0.12796
C          C       0.83030   0.43917   0.59061   0.06671
C          C       0.80904   0.40330   0.58269   0.05829
C          C       0.82856   0.36700   0.58218  -0.10725
C          C       0.30203   0.86353   0.18412  -0.13608
C          C       0.26167   0.85449   0.31152   0.06161
C          C       0.24459   0.87682   0.47412  -0.11137
C          C       0.26754   0.90693   0.50817  -0.13678
C          C       0.23921   0.82134   0.27857   0.06886
C          C       0.79819   0.90330   0.35573  -0.09357
C          C       0.82793   0.87391   0.31993  -0.11530
C          C       0.81594   0.83508   0.32396   0.06387
C          C       0.77340   0.82656   0.35417  -0.09092
C          C       0.74346   0.85603   0.39146  -0.13301
C          C       0.84776   0.80519   0.31205   0.07612
C          C       0.30815   0.91574   0.38212   0.05860
C          C       0.32504   0.89355   0.21899  -0.11176
C          C       0.34484   0.31870   0.55974   0.07335
C          C       0.36474   0.25423   0.57264   0.20362
C          C       0.40614   0.25586   0.44296  -0.18427
C          C       0.43368   0.22473   0.42782  -0.12669
C          C       0.42113   0.19107   0.54139   0.05979
C          C       0.38002   0.18991   0.67296  -0.13343
C          C       0.35222   0.22071   0.68774  -0.15793
C          C       0.44879   0.15665   0.51258   0.02748
C          C       0.33107   0.94757   0.42414   0.06537
C          C       0.38940   0.98835   0.36046   0.19795
C          C       0.37535   0.00935   0.52905  -0.17281
C          C       0.39777   0.04088   0.55336  -0.13182
C          C       0.43555   0.05246   0.41328   0.06910
C          C       0.45026   0.03087   0.24741  -0.13264
C          C       0.42751  -0.00049   0.22172  -0.15449
C          C       0.49146   0.15819   0.50659   0.02411
C          C       0.51715   0.12413   0.46406  -0.00000
C          C       0.49960   0.08856   0.43251   0.02478
C          C       0.45662   0.08766   0.44292   0.02340
C          C       0.43241   0.12146   0.48408  -0.19403
C          C       0.56023   0.12540   0.45788  -0.00072
C          C       0.57845   0.16102   0.48471   0.02973
C          C       0.55054   0.19320   0.54474  -0.13723
C          C       0.50914   0.19190   0.55501  -0.13747
C          C       0.52544   0.05462   0.40115  -0.13488
C          C       0.56610   0.05554   0.40165  -0.13621
C          C       0.58466   0.09057   0.42912   0.02422
C          C       0.62237   0.16223   0.46085   0.02062
C          C       0.64488   0.12717   0.43421  -0.18615
C          C       0.62697   0.09173   0.42619   0.02410
C          C       0.70530   0.99047   0.39104   0.19298
C          C       0.67293   0.99854   0.56132  -0.18615
C          C       0.64724   0.03107   0.57112  -0.12856
C          C       0.65270   0.05591   0.41208   0.05980
C          C       0.68426   0.04709   0.24129  -0.12761
C          C       0.71056   0.01526   0.23179  -0.16812
C          C       0.69251   0.26530   0.47378   0.18521
C          C       0.70401   0.22884   0.53116  -0.16290
C          C       0.68091   0.19629   0.52840  -0.12362
C          C       0.64559   0.19783   0.46438   0.07042
C          C       0.63510   0.23425   0.40137  -0.13158
C          C       0.65739   0.26717   0.41012  -0.15757
C          C       0.19943   0.22592   0.06474  -0.13287
C          C       0.15999   0.22807   0.03494   0.05884
C          C       0.14276   0.26455   0.01374  -0.10834
C          C       0.16483   0.29764   0.01906  -0.13459
C          C       0.13840   0.19260   0.02406   0.06569
C          C       0.13816   0.82469   0.89757   0.07196
C          C       0.16842   0.79329   0.87721   0.06554
C          C       0.46292   0.58434   0.76786  -0.13714
C          C       0.42120   0.58106   0.78736  -0.13543
C          C       0.40029   0.54481   0.83071   0.02791
C          C       0.42478   0.51068   0.83441  -0.00128
C          C       0.46883   0.51405   0.80978  -0.00011
C          C       0.48755   0.55148   0.78820   0.02524
C          C       0.49383   0.48017   0.81226   0.02553
C          C       0.47431   0.44350   0.82447  -0.13633
C          C       0.43254   0.44038   0.84343  -0.13848
C          C       0.40551   0.47335   0.86169   0.02900
C          C       0.35637   0.54134   0.86449   0.02372
C          C       0.33812   0.50499   0.90562  -0.18589
C          C       0.36100   0.47075   0.90390   0.02065
C          C       0.53003   0.55477   0.78294   0.02300
C          C       0.55312   0.52123   0.79224  -0.19328
C          C       0.53643   0.48419   0.80532   0.02198
C          C       0.55065   0.59231   0.77801   0.06221
C          C       0.56318   0.45111   0.82921   0.06408
C          C       0.32845   0.57426   0.85551   0.06167
C          C       0.33673   0.43459   0.94551   0.06307
C          C       0.57344   0.41938   0.70895  -0.13326
C          C       0.59941   0.38958   0.73809  -0.18610
C          C       0.61613   0.39058   0.88917   0.20171
C          C       0.60693   0.42284   0.00607  -0.16487
C          C       0.58053   0.45207   0.97801  -0.13056
C          C       0.59050   0.60008   0.64428  -0.13023
C          C       0.61173   0.63399   0.64873  -0.18317
C          C       0.59354   0.66141   0.78805   0.20130
C          C       0.55301   0.65437   0.91757  -0.16122
C          C       0.53225   0.62025   0.91414  -0.13022
C          C       0.30055   0.43216   0.88931  -0.12173
C          C       0.27631   0.39919   0.92278  -0.17386
C          C       0.28721   0.36645   0.01381   0.18895
C          C       0.32309   0.36850   0.07097  -0.15127
C          C       0.34676   0.40199   0.04117  -0.13143
C          C       0.30157   0.57099   0.74537  -0.12834
C          C       0.27349   0.60025   0.73589  -0.16556
C          C       0.27198   0.63449   0.83391   0.20173
C          C       0.29837   0.63783   0.94628  -0.19073
C          C       0.32599   0.60808   0.95751  -0.12552
C          C       0.63719   0.32631   0.90635   0.07591
C          C       0.66517   0.29623   0.94035   0.06417
C          C       0.70268   0.30494   0.97602  -0.10171
C          C       0.72901   0.27544   0.00143  -0.12569
C          C       0.71830   0.23650  -0.00321   0.05288
C          C       0.68015   0.22782   0.96771  -0.10232
C          C       0.65448   0.25726   0.93622  -0.11860
C          C       0.22742   0.33099   0.03979   0.06096
C          C       0.20466   0.29548   0.04512   0.06353
C          C       0.22156   0.25903   0.06979  -0.10563
C          C       0.71862   0.73069   0.75264  -0.12882
C          C       0.67495   0.73219   0.78097   0.05834
C          C       0.65357   0.76781   0.82075  -0.11011
C          C       0.67540   0.80058   0.83388  -0.13692
C          C       0.65305   0.69685   0.77049   0.06548
C          C       0.21209   0.79963   0.82265  -0.09865
C          C       0.23969   0.76850   0.79482  -0.13802
C          C       0.22455   0.73044   0.82063   0.05937
C          C       0.18086   0.72408   0.87488  -0.09476
C          C       0.15333   0.75519   0.90341  -0.11602
C          C       0.25426   0.69867   0.80385   0.06971
C          C       0.71901   0.79900   0.80810   0.06239
C          C       0.74047   0.76348   0.76614  -0.10292
C          C       0.74754   0.20611   0.01539   0.07297
C          C       0.76854   0.14155   0.01700   0.19954
C          C       0.80605   0.13983   0.86114  -0.19230
C          C       0.83341   0.10834   0.84197  -0.12682
C          C       0.82462   0.07806   0.97849   0.05719
C          C       0.78804   0.08061   0.13711  -0.12578
C          C       0.76023   0.11147   0.15462  -0.16954
C          C       0.85195   0.04330   0.95623   0.02747
C          C       0.74036   0.83448   0.82080   0.06835
C          C       0.79804   0.87068   0.82143   0.20612
C          C       0.77595   0.90006   0.93980  -0.17066
C          C       0.79666   0.93260   0.96548  -0.12547
C          C       0.83998   0.93812   0.87094   0.06695
C          C       0.86170   0.90939   0.74531  -0.13456
C          C       0.84142   0.87599   0.72573  -0.15821
C          C       0.89344   0.04536   0.96361   0.02396
C          C       0.91834   0.01086   0.94465   0.00035
C          C       0.90111   0.97446   0.92225   0.02680
C          C       0.85993   0.97341   0.90641   0.02477
C          C       0.83651   0.00789   0.92703  -0.18374
C          C       0.96057   0.01299   0.94966   0.00188
C          C       0.97783   0.04970   0.96620   0.02519
C          C       0.95103   0.08297  -0.00318  -0.13603
C          C       0.91047   0.08081  -0.00338  -0.13372
C          C       0.92617   0.94064   0.92219  -0.13882
C          C       0.96649   0.94258   0.92746  -0.13907
C          C       0.98552   0.97861   0.93750   0.02431
C          C       0.02043   0.05186   0.95974   0.02181
C          C       0.04421   0.01795   0.94420  -0.19270
C          C       0.02790   0.98158   0.93454   0.02127
C          C       0.11764   0.88851   0.87902   0.19640
C          C       0.07874   0.88746   0.02776  -0.18200
C          C       0.04896   0.91677   0.04383  -0.13095
C          C       0.05710   0.94828   0.91387   0.06517
C          C       0.09613   0.94931   0.76659  -0.13359
C          C       0.12599   0.92016   0.74967  -0.15807
C          C       0.08312   0.15775   0.98665   0.20315
C          C       0.08190   0.12680   0.11571  -0.18589
C          C       0.06095   0.09302   0.10696  -0.12826
C          C       0.04083   0.08876   0.96986   0.06182
C          C       0.04151   0.12003   0.84345  -0.13137
C          C       0.06175   0.15412   0.85340  -0.16678
N          N       0.24286   0.47475   0.47610  -0.28278
N          N       0.20475   0.80968   0.40463  -0.26462
N          N       0.83960   0.76882   0.32465  -0.27901
N          N       0.86695   0.44051   0.61276  -0.28653
N          N       0.33448   0.28283   0.58046  -0.27213
N          N       0.36862   0.95697   0.31675  -0.30006
N          N       0.73472   0.96047   0.37182  -0.26072
N          N       0.71193   0.30006   0.48502  -0.28998
N          N       0.64297   0.36235   0.92693  -0.28505
N          N       0.61280   0.69600   0.80378  -0.28461
N          N       0.24264   0.66309   0.82624  -0.27770
N          N       0.26588   0.33141   0.04059  -0.27895
N          N       0.73791   0.17014   0.02793  -0.26687
N          N       0.78013   0.83589   0.79871  -0.28258
N          N       0.14913   0.86019   0.85424  -0.27193
N          N       0.10326   0.19266   0.98758  -0.28663

