data_crystal

_audit_creation_method 'AiiDA-DDEC plugin'

_cell_length_a        36.17839
_cell_length_b        38.20705
_cell_length_c         6.89874

_cell_angle_alpha     59.12645
_cell_angle_beta     92.27372
_cell_angle_gamma     121.43113

_symmetry_space_group_name_Hall 'P 1'
_symmetry_space_group_name_H-M  'P 1'

loop_
_symmetry_equiv_pos_as_xyz
 'x,y,z'

loop_
_atom_site_label
_atom_site_type_symbol
_atom_site_fract_x
_atom_site_fract_y
_atom_site_fract_z
_atom_site_charge
H          H       0.71161   0.84738   0.12441   0.11079
H          H       0.68470   0.92810   0.28792   0.10265
H          H       0.57438   0.79960   0.32334   0.11392
H          H       0.63428   0.90544   0.56111   0.11003
H          H       0.58987   0.93459   0.59955   0.10918
H          H       0.49695   0.86493   0.29908   0.11748
H          H       0.54421   0.84028   0.23574   0.11097
H          H       0.77894   0.91734   0.93014   0.10542
H          H       0.85934   0.97251   0.88231   0.11263
H          H       0.82255  -0.00065   0.35240   0.12005
H          H       0.74108   0.94277   0.40525   0.10595
H          H       0.67513   0.82515   0.84250   0.10211
H          H       0.65183   0.75392   0.82236   0.12043
H          H       0.54659   0.65172   0.49724   0.10905
H          H       0.57108   0.72277   0.51969   0.10346
H          H       0.57259   0.99158   0.33231   0.05733
H          H       0.41420   0.98200   0.34017   0.11047
H          H       0.57549   0.05343   0.29735   0.11572
H          H       0.41885   0.04751   0.27922   0.05504
H          H       0.40834   0.10781   0.06553   0.10722
H          H       0.36675   0.14080   0.08165   0.10714
H          H       0.43633   0.17715   0.54225   0.10662
H          H       0.48042   0.14697   0.51116   0.11462
H          H       0.31370   0.13087   0.25284   0.10639
H          H       0.29666   0.22366   0.35713   0.10643
H          H       0.41463   0.22323   0.44470   0.10779
H          H       0.28266   0.15311   0.97445   0.10813
H          H       0.21057   0.11939   0.87955   0.11428
H          H       0.15030   0.12569   0.37607   0.11245
H          H       0.22163   0.15862   0.47395   0.10156
H          H       0.30766   0.24194   0.61829   0.10003
H          H       0.33798   0.31746   0.61421   0.11406
H          H       0.47433   0.37054   0.33783   0.09626
H          H       0.44506   0.29810   0.32810   0.10596
H          H       0.11706   0.14149   0.10012   0.06182
H          H       0.91252   0.98386   0.04324   0.06073
H          H       0.51825   0.62395   0.26332   0.06530
H          H       0.61118   0.13473   0.07571   0.10591
H          H       0.60290   0.11226   0.38580   0.10596
H          H       0.61078   0.17038   0.17105   0.12400
H          H       0.37856   0.86473   0.46159   0.13257
H          H       0.38399   0.92242   0.30508   0.08752
H          H       0.37638   0.88942   0.62030   0.11300
H          H       0.46307   0.56109   0.25723   0.10801
H          H       0.54738   0.48844   0.35666   0.11069
H          H       0.48747   0.41623   0.44877   0.05687
H          H       0.98008  -0.00059   0.98044   0.11622
H          H       0.05311   0.13485   0.10030   0.11428
H          H       0.62138   0.54800   0.19544   0.09652
H          H       0.60317   0.52134   0.50449   0.09490
H          H       0.65440   0.58369   0.30834   0.12335
H          H       0.35307   0.45993   0.37457   0.12011
H          H       0.40015   0.52470   0.17385   0.09929
H          H       0.38991   0.49383   0.48808   0.09373
H          H       0.07485   0.99896   0.87130   0.12851
H          H       0.03666   0.01422   0.74934   0.10554
H          H       0.01892   0.96531   0.06004   0.10236
H          H       0.02175   0.17645   0.93158   0.10124
H          H       0.00167   0.13652   0.25087   0.10690
H          H       0.96728   0.15353   0.08805   0.12584
H          H       0.69252   0.30026   0.64005   0.10785
H          H       0.67281   0.39004   0.75951   0.10483
H          H       0.56121   0.27292   0.72811   0.10983
H          H       0.61802   0.36569   0.02487   0.10910
H          H       0.57338   0.39293   0.08175   0.10758
H          H       0.48973   0.34319   0.69410   0.11563
H          H       0.53709   0.31969   0.61860   0.10608
H          H       0.76319   0.37020   0.44781   0.10452
H          H       0.84261   0.41853   0.43855   0.11340
H          H       0.80282   0.43992   0.92632   0.11957
H          H       0.72239   0.39044   0.93999   0.11112
H          H       0.67135   0.27073   0.42956   0.10285
H          H       0.64355   0.19181   0.47187   0.11451
H          H       0.51001   0.12470   0.87074   0.09476
H          H       0.53779   0.20015   0.85199   0.10737
H          H       0.55862   0.44921   0.88423   0.04884
H          H       0.40561   0.45009   0.86207   0.11309
H          H       0.56471   0.51255   0.84597   0.10993
H          H       0.41171   0.51329   0.83347   0.05603
H          H       0.40555   0.57735   0.51425   0.10700
H          H       0.36295   0.61126   0.50623   0.10912
H          H       0.43859   0.66491   0.90475   0.11023
H          H       0.48497   0.63605   0.88570   0.11853
H          H       0.30990   0.59792   0.69465   0.10290
H          H       0.27878   0.67708   0.84871   0.11235
H          H       0.41047   0.70563   0.81567   0.11131
H          H       0.26844   0.60407   0.47186   0.10733
H          H       0.19379   0.56164   0.41246   0.11696
H          H       0.13406   0.56598   0.91991   0.11333
H          H       0.20821   0.60882   0.97706   0.10235
H          H       0.30177   0.68507   0.20252   0.09272
H          H       0.32710   0.75087   0.27120   0.11836
H          H       0.44731   0.85377   0.66658   0.10204
H          H       0.42212   0.78803   0.59997   0.10020
H          H       0.09889   0.57824   0.65694   0.06038
H          H       0.89084   0.42172   0.62261   0.05989
H          H       0.49633   0.08208   0.72291   0.05667
H          H       0.60553   0.60690   0.56638   0.11510
H          H       0.59802   0.57325   0.88116   0.08738
H          H       0.60455   0.63141   0.72856   0.13372
H          H       0.36602   0.33277   0.97023   0.12394
H          H       0.37784   0.39305   0.75532   0.10537
H          H       0.36532   0.36765   0.06923   0.10179
H          H       0.43893   0.01113   0.80817   0.11054
H          H       0.52465   0.93946   0.92147   0.10837
H          H       0.46831   0.87365   0.93101   0.06603
H          H       0.95700   0.43393   0.56685   0.11448
H          H       0.03440   0.56746   0.69958   0.11789
H          H       0.59924   0.00954   0.68539   0.09456
H          H       0.58808   0.97776   0.00079   0.09700
H          H       0.63451   0.04293   0.80423   0.12060
H          H       0.33182   0.91329   0.86859   0.12188
H          H       0.38174   0.97656   0.68218   0.09520
H          H       0.36295   0.94652  -0.00459   0.09589
H          H       0.04958   0.42881   0.46752   0.12781
H          H       0.01085   0.44332   0.34582   0.10560
H          H       0.99498   0.39784   0.65975   0.10200
H          H       0.99877   0.60562   0.59879   0.10304
H          H       0.98092   0.55942   0.91357   0.10636
H          H       0.94385   0.57593   0.78276   0.12747
C          C       0.53524   0.96649   0.37727   0.09162
C          C       0.64151   0.82036   0.21239   0.08227
C          C       0.68816   0.85335   0.17230  -0.19484
C          C       0.70438   0.89162   0.20582   0.07064
C          C       0.67266   0.89688   0.27551  -0.19898
C          C       0.62579   0.86429   0.31960   0.07337
C          C       0.61055   0.82575   0.28898  -0.18791
C          C       0.59464   0.87364   0.38058   0.05645
C          C       0.62532   0.77910   0.18542   0.04248
C          C       0.75323   0.92514   0.17340   0.05704
C          C       0.60545   0.89853   0.49239  -0.12042
C          C       0.58003   0.91437   0.51775  -0.18983
C          C       0.54149   0.90408   0.43838   0.19625
C          C       0.52769   0.87429   0.35148  -0.16203
C          C       0.55423   0.86047   0.31766  -0.13250
C          C       0.78785   0.93414   0.02804  -0.12710
C          C       0.83358   0.96502   0.00304  -0.17677
C          C       0.84688   0.98813   0.12435   0.19741
C          C       0.81253   0.98066   0.26328  -0.15695
C          C       0.76686   0.94933   0.28935  -0.13348
C          C       0.64743   0.78716   0.98803  -0.13217
C          C       0.63430   0.74729   0.97486  -0.16549
C          C       0.59770   0.69788   0.15774   0.19777
C          C       0.57430   0.68979   0.35157  -0.17819
C          C       0.58818   0.72989   0.36417  -0.12357
C          C       0.51250   0.98991   0.35333  -0.00733
C          C       0.46592   0.96920   0.36478   0.21401
C          C       0.44964   0.99728   0.33130  -0.25424
C          C       0.47643   0.04383   0.30023  -0.01215
C          C       0.52292   0.06429   0.29020   0.21490
C          C       0.53988   0.03772   0.30891  -0.23658
C          C       0.45369   0.06648   0.29070   0.07032
C          C       0.44578   0.12254   0.29954   0.19491
C          C       0.41381   0.12180   0.17483  -0.18749
C          C       0.38999   0.14019   0.18610  -0.12239
C          C       0.39594   0.15898   0.32420   0.05593
C          C       0.42954   0.16173   0.43880  -0.13110
C          C       0.45433   0.14459   0.42384  -0.15560
C          C       0.36822   0.17578   0.34192   0.07398
C          C       0.32653   0.15847   0.29271  -0.19179
C          C       0.30023   0.17506   0.29877   0.07601
C          C       0.31557   0.20862   0.36340  -0.19133
C          C       0.35659   0.22592   0.41933   0.07704
C          C       0.38239   0.20909   0.40734  -0.18642
C          C       0.25782   0.15815   0.23298   0.05889
C          C       0.37390   0.26467   0.46615   0.05044
C          C       0.25363   0.14700   0.06361  -0.13062
C          C       0.21341   0.12863   0.00747  -0.15775
C          C       0.17584   0.12215   0.11312   0.19496
C          C       0.17989   0.13342   0.28190  -0.17880
C          C       0.22011   0.15144   0.33876  -0.12758
C          C       0.34429   0.27028   0.55458  -0.13843
C          C       0.36106   0.31218   0.55595  -0.15954
C          C       0.40827   0.35013   0.47173   0.20273
C          C       0.43783   0.34183   0.40688  -0.16457
C          C       0.42102   0.30039   0.40164  -0.11181
C          C       0.10793   0.11307   0.06679   0.07573
C          C       0.92221   0.01414   0.06305   0.07757
C          C       0.52781   0.57364   0.25582  -0.00186
C          C       0.54519   0.62109   0.22156   0.09337
C          C       0.59644   0.13251   0.22120  -0.19139
C          C       0.39160   0.89893   0.45102  -0.18994
C          C       0.48158   0.54517   0.27448  -0.24874
C          C       0.45888   0.49782   0.32093   0.21013
C          C       0.48293   0.47659   0.35089  -0.00651
C          C       0.52941   0.50533   0.33053  -0.25559
C          C       0.55212   0.55267   0.28428   0.20536
C          C       0.46345   0.42648   0.41407   0.09630
C          C       0.97025   0.04412   0.04131  -0.00664
C          C       0.99672   0.02989   0.00224  -0.27328
C          C       0.04221   0.05222  -0.00260   0.20280
C          C       0.06276   0.09000   0.04065  -0.01109
C          C       0.03691   0.10561   0.07000  -0.27484
C          C       0.99202   0.08473   0.06500   0.20225
C          C       0.61976   0.55637   0.32433  -0.18636
C          C       0.38829   0.48889   0.34334  -0.18566
C          C       0.04780   0.00203   0.90736  -0.18462
C          C       0.99145   0.14444   0.08931  -0.18605
C          C       0.52282   0.42914   0.88674   0.07580
C          C       0.62540   0.28356   0.66686   0.07662
C          C       0.67103   0.31078   0.66093  -0.19757
C          C       0.68851   0.34878   0.69726   0.07044
C          C       0.65925   0.35938   0.74074  -0.19394
C          C       0.61320   0.33220   0.75366   0.07344
C          C       0.59695   0.29475   0.71452  -0.18329
C          C       0.58315   0.34377   0.80413   0.05671
C          C       0.60725   0.24133   0.64506   0.04541
C          C       0.73634   0.37658   0.69445   0.05902
C          C       0.59144   0.36311   0.94113  -0.12477
C          C       0.56598   0.37809   0.97525  -0.18761
C          C       0.53014   0.37313   0.87609   0.19440
C          C       0.51901   0.34944   0.75830  -0.15837
C          C       0.54541   0.33589   0.71929  -0.12981
C          C       0.77120   0.38436   0.55735  -0.13041
C          C       0.81613   0.41122   0.55387  -0.17688
C          C       0.82821   0.43097   0.68996   0.19561
C          C       0.79366   0.42410   0.82396  -0.15716
C          C       0.74872   0.39685   0.82826  -0.13718
C          C       0.63606   0.23842   0.53093  -0.13392
C          C       0.62055   0.19459   0.55023  -0.16923
C          C       0.57486   0.15211   0.67715   0.20783
C          C       0.54512   0.15698   0.76910  -0.16987
C          C       0.56109   0.20019   0.75708  -0.11121
C          C       0.50132   0.45285   0.87890  -0.01039
C          C       0.45535   0.43475   0.88242   0.21867
C          C       0.44050   0.46328   0.86081  -0.23641
C          C       0.46929   0.51028   0.82399  -0.00836
C          C       0.51532   0.52867   0.81797   0.21286
C          C       0.52965   0.49910   0.85014  -0.25257
C          C       0.44904   0.53628   0.79522   0.08999
C          C       0.44654   0.60178   0.71429   0.19693
C          C       0.41241   0.59600   0.60214  -0.19014
C          C       0.38803   0.61472   0.60089  -0.12070
C          C       0.39512   0.63790   0.71840   0.05411
C          C       0.43131   0.64626   0.81655  -0.13196
C          C       0.45723   0.62979   0.80884  -0.16508
C          C       0.36447   0.65074   0.74642   0.07330
C          C       0.32054   0.62601   0.72890  -0.19432
C          C       0.28924   0.63500   0.76290   0.07287
C          C       0.30199   0.66858   0.82568  -0.18932
C          C       0.34565   0.69393   0.84516   0.08065
C          C       0.37662   0.68513   0.80274  -0.19026
C          C       0.24445   0.61023   0.72771   0.05648
C          C       0.36031   0.73167   0.89670   0.04306
C          C       0.23906   0.59597   0.56999  -0.12842
C          C       0.19731   0.57246   0.53432  -0.16136
C          C       0.15902   0.56318   0.65157   0.19810
C          C       0.16392   0.57621   0.81398  -0.17905
C          C       0.20577   0.59971   0.84885  -0.12611
C          C       0.33370   0.72192   0.08531  -0.13345
C          C       0.34768   0.75867   0.12463  -0.16130
C          C       0.38909   0.80658   0.97566   0.19660
C          C       0.41634   0.81619   0.78991  -0.17772
C          C       0.40187   0.77928   0.75144  -0.12454
C          C       0.08902   0.54885   0.62981   0.07741
C          C       0.90144   0.45100   0.65181   0.07592
C          C       0.50315   0.02316   0.82324  -0.00832
C          C       0.52147   0.07340   0.75492   0.09849
C          C       0.59072   0.59735   0.73651  -0.19101
C          C       0.38144   0.37044   0.92570  -0.19089
C          C       0.45689   0.99402   0.84174  -0.25280
C          C       0.43470   0.94661   0.88987   0.20445
C          C       0.45945   0.92597   0.92203   0.00072
C          C       0.50569   0.95495   0.90428  -0.25046
C          C       0.52789   0.00251   0.85533   0.20922
C          C       0.44192   0.87875   0.95390   0.09061
C          C       0.94904   0.47803   0.64154  -0.00971
C          C       0.97460   0.46377   0.59311  -0.27288
C          C       0.02041   0.48573   0.58151   0.20148
C          C       0.04244   0.52375   0.62290  -0.00903
C          C       0.01699   0.53825   0.66924  -0.27622
C          C       0.97139   0.51687   0.67777   0.20444
C          C       0.59973   0.01367   0.83234  -0.18259
C          C       0.36583   0.94070   0.85784  -0.18643
C          C       0.02341   0.43325   0.50005  -0.18566
C          C       0.96949   0.57037   0.75543  -0.18701
N          N       0.51549   0.92145   0.43495  -0.26145
N          N       0.58767   0.65790   0.15040  -0.28006
N          N       0.89202   0.01960   0.11048  -0.27946
N          N       0.47072   0.10397   0.30661  -0.26754
N          N       0.42203   0.39560   0.43196  -0.28956
N          N       0.13557   0.10176   0.05747  -0.27387
N          N       0.50432   0.39001   0.88318  -0.26642
N          N       0.56292   0.10646   0.72632  -0.29104
N          N       0.87274   0.45866   0.69404  -0.27692
N          N       0.47077   0.58159   0.73737  -0.26701
N          N       0.39959   0.84495  -0.00225  -0.27641
N          N       0.11749   0.53904   0.61179  -0.27639
O          O       0.54830   0.10899   0.26167  -0.13126
O          O       0.43993   0.92327   0.40554  -0.13810
O          O       0.59674   0.57969   0.27576  -0.15700
O          O       0.41373   0.47028   0.34031  -0.15301
O          O       0.06822   0.03902   0.95833  -0.14788
O          O       0.96762   0.10128   0.08276  -0.14466
O          O       0.54252   0.57403   0.78274  -0.14375
O          O       0.42870   0.39066   0.90620  -0.12924
O          O       0.57303   0.03113   0.83468  -0.15787
O          O       0.39039   0.91941   0.89535  -0.15294
O          O       0.04580   0.47272   0.53431  -0.14562
O          O       0.94676   0.53121   0.71907  -0.14644

