data_crystal

_audit_creation_method 'AiiDA-DDEC plugin'

_cell_length_a        36.99614
_cell_length_b        36.76059
_cell_length_c         7.42026

_cell_angle_alpha     70.08502
_cell_angle_beta     87.71643
_cell_angle_gamma     118.69865

_symmetry_space_group_name_Hall 'P 1'
_symmetry_space_group_name_H-M  'P 1'

loop_
_symmetry_equiv_pos_as_xyz
 'x,y,z'

loop_
_atom_site_label
_atom_site_type_symbol
_atom_site_fract_x
_atom_site_fract_y
_atom_site_fract_z
_atom_site_charge
H          H       0.48482   0.62073   0.27056   0.10628
H          H       0.46870   0.72886   0.26468   0.10120
H          H       0.36447   0.60938   0.24408   0.10089
H          H       0.42858   0.74428   0.33820   0.10492
H          H       0.38327   0.77495   0.34215   0.10632
H          H       0.28919   0.67427   0.17439   0.11578
H          H       0.33446   0.64267   0.17074   0.10715
H          H       0.53432   0.64777   0.40619   0.09752
H          H       0.60596   0.69147   0.44154   0.10810
H          H       0.60581   0.81525   0.16895   0.11574
H          H       0.53243   0.77100   0.13727   0.10507
H          H       0.46410   0.57454   0.13778   0.10567
H          H       0.43328   0.50047   0.11619   0.11929
H          H       0.30850   0.46533   0.37136   0.11089
H          H       0.33923   0.53872   0.39778   0.10621
H          H       0.35590   0.81110   0.17453   0.06203
H          H       0.23547   0.74025   0.34397   0.11634
H          H       0.19131   0.77369   0.36624   0.10629
H          H       0.30441   0.90578   0.17187   0.11747
H          H       0.34857   0.87265   0.14251   0.11005
H          H       0.18393   0.83646   0.32381   0.06822
H          H       0.16636   0.88444   0.08979   0.11207
H          H       0.12064   0.91608   0.09025   0.11185
H          H       0.19482   0.98989   0.41571   0.10851
H          H       0.24174   0.95968   0.40655   0.12175
H          H       0.06866   0.91331   0.28585   0.10840
H          H       0.05506   0.02454   0.26088   0.11061
H          H       0.17779   0.03934   0.22861   0.11148
H          H       0.01439   0.90300   0.11857   0.11096
H          H       0.93630   0.85728   0.15840   0.12223
H          H       0.91679   0.92036   0.51453   0.11355
H          H       0.99411   0.96496   0.48037   0.11416
H          H       0.10094   0.10067   0.03709   0.11374
H          H       0.13422   0.18005   0.00782   0.12169
H          H       0.21012   0.15726   0.40314   0.11484
H          H       0.17666   0.07798   0.43503   0.11249
H          H       0.86397   0.90904   0.35190   0.06763
H          H       0.81178   0.79096   0.36955   0.11594
H          H       0.73669   0.74612   0.35066   0.10797
H          H       0.71884   0.85470   0.32912   0.11740
H          H       0.79408   0.89970   0.34665   0.10757
H          H       0.67159   0.73958   0.30588   0.06787
H          H       0.29777   0.43665   0.13978   0.06532
H          H       0.35270   0.37174   0.16153   0.11739
H          H       0.31707   0.29477   0.15270   0.10856
H          H       0.20127   0.29489   0.12504   0.11794
H          H       0.23718   0.37255   0.12710   0.10711
H          H       0.25546   0.22910   0.15440   0.06874
H          H       0.74034   0.36767   0.76232   0.11079
H          H       0.72224   0.47491   0.76003   0.11166
H          H       0.62057   0.35730   0.71189   0.10888
H          H       0.66284   0.46454   0.94226   0.11197
H          H       0.61661   0.49558   0.93273   0.11140
H          H       0.56425   0.44580   0.49972   0.12145
H          H       0.61120   0.41480   0.50788   0.11036
H          H       0.77809   0.39237   0.00001   0.11146
H          H       0.85230   0.43618   0.02446   0.11176
H          H       0.86698   0.55824   0.59640   0.12120
H          H       0.79296   0.51423   0.56777   0.11032
H          H       0.72107   0.33366   0.53823   0.11052
H          H       0.69379   0.25914   0.51745   0.12099
H          H       0.57256   0.20804   0.87990   0.11224
H          H       0.59975   0.28157   0.90531   0.11017
H          H       0.60163   0.54493   0.76608   0.06390
H          H       0.49482   0.49761   0.63424   0.11933
H          H       0.44974   0.53111   0.62676   0.11365
H          H       0.53945   0.62695   0.83326   0.11693
H          H       0.58512   0.59415   0.83657   0.10634
H          H       0.43616   0.58444   0.67386   0.06555
H          H       0.39598   0.60591   0.69337   0.11010
H          H       0.35670   0.64304   0.68781   0.10495
H          H       0.45841   0.74388   0.83079   0.10298
H          H       0.49854   0.70637   0.83110   0.11944
H          H       0.32023   0.66151   0.76188   0.10422
H          H       0.31037   0.77282   0.76163   0.11322
H          H       0.43003   0.78077   0.75738   0.10570
H          H       0.27338   0.65993   0.56868   0.10384
H          H       0.19632   0.61301   0.59174   0.12244
H          H       0.16788   0.66172  -0.00373   0.11260
H          H       0.24454   0.70784   0.97723   0.11127
H          H       0.35819   0.84793   0.55182   0.10517
H          H       0.39144   0.92594   0.54165   0.12369
H          H       0.46229   0.89616   0.95174   0.11321
H          H       0.42871   0.81799   0.96449   0.10454
H          H       0.11649   0.65168   0.82692   0.06719
H          H       0.06851   0.53681   0.80049   0.11627
H          H       0.99171   0.48949   0.80553   0.11029
H          H       0.96984   0.59128   0.85440   0.11923
H          H       0.04647   0.63819   0.85185   0.10823
H          H       0.92182   0.47817   0.81629   0.06929
H          H       0.55763   0.18070   0.64805   0.06594
H          H       0.61209   0.11459   0.66689   0.11818
H          H       0.57284   0.03499   0.68926   0.10900
H          H       0.45784   0.03736   0.67958   0.11658
H          H       0.49723   0.11711   0.65567   0.10825
H          H       0.50958   0.96905   0.70969   0.06786
C          C       0.32148   0.78634   0.21932   0.07067
C          C       0.42222   0.60933   0.26238   0.07347
C          C       0.46484   0.63487   0.26680  -0.18254
C          C       0.48226   0.67843   0.26432   0.07788
C          C       0.45562   0.69575   0.26051  -0.17986
C          C       0.41301   0.67170   0.25351   0.07309
C          C       0.39697   0.62844   0.25456  -0.18522
C          C       0.38601   0.69126   0.24987   0.05290
C          C       0.40415   0.56369   0.26164   0.05266
C          C       0.52714   0.70554   0.26960   0.06127
C          C       0.39880   0.72925   0.29493  -0.12696
C          C       0.37316   0.74711   0.29633  -0.16506
C          C       0.33359   0.72840   0.24771   0.19531
C          C       0.31993   0.68953   0.20924  -0.15434
C          C       0.34573   0.67182   0.20809  -0.12718
C          C       0.54963   0.68454   0.35055  -0.11548
C          C       0.59076   0.70948   0.36815  -0.17599
C          C       0.61190   0.75723   0.30056   0.20350
C          C       0.58955   0.77845   0.22054  -0.15613
C          C       0.54830   0.75326   0.20419  -0.13094
C          C       0.43000   0.55084   0.19040  -0.12575
C          C       0.41284   0.50921   0.17685  -0.15750
C          C       0.36853   0.47886   0.23025   0.20546
C          C       0.34248   0.48996   0.31451  -0.18158
C          C       0.36006   0.53147   0.32936  -0.13296
C          C       0.29469   0.80432   0.23855   0.06397
C          C       0.25009   0.77644   0.30413  -0.10946
C          C       0.22580   0.79518   0.31777  -0.13388
C          C       0.24511   0.84206   0.26975   0.05876
C          C       0.28976   0.86971   0.20852  -0.10823
C          C       0.31407   0.85113   0.19275  -0.12920
C          C       0.21847   0.86056   0.28331   0.06523
C          C       0.20665   0.91881   0.25341   0.20539
C          C       0.17196   0.90672   0.16512  -0.18454
C          C       0.14628   0.92472   0.16551  -0.12821
C          C       0.15372   0.95491   0.25591   0.05187
C          C       0.18864   0.96707   0.34257  -0.13190
C          C       0.21494   0.94998   0.33912  -0.16626
C          C       0.12644   0.97400   0.25680   0.07411
C          C       0.08275   0.94829   0.26901  -0.19310
C          C       0.05649   0.96587   0.27195   0.07384
C          C       0.07494   0.01037   0.26021  -0.19473
C          C       0.11842   0.03695   0.24771   0.07736
C          C       0.14378   0.01834   0.24588  -0.19673
C          C       0.01019   0.93816   0.29331   0.05765
C          C       0.13745   0.08392   0.23296   0.05331
C          C       0.99314   0.90686   0.20577  -0.13129
C          C       0.94956   0.88143   0.22595  -0.15862
C          C       0.92141   0.88713   0.33071   0.20009
C          C       0.93816   0.91746   0.42315  -0.17684
C          C       0.98174   0.94247   0.40422  -0.13328
C          C       0.12493   0.11301   0.11699  -0.13342
C          C       0.14356   0.15751   0.09937  -0.16127
C          C       0.17613   0.17481   0.19363   0.20234
C          C       0.18733   0.14524   0.31770  -0.18225
C          C       0.16822   0.10062   0.33627  -0.12921
C          C       0.85289   0.87530   0.35241   0.06514
C          C       0.80797   0.84809   0.35771   0.05835
C          C       0.79096   0.80426   0.36134  -0.10792
C          C       0.74934   0.77974   0.35008  -0.13531
C          C       0.72295   0.79784   0.33688   0.06063
C          C       0.73954   0.84120   0.33844  -0.10951
C          C       0.78138   0.86593   0.34847  -0.13294
C          C       0.67987   0.77153   0.31853   0.06397
C          C       0.31646   0.42024   0.16359   0.06552
C          C       0.29715   0.37659   0.14799   0.06207
C          C       0.31972   0.35457   0.15247  -0.10524
C          C       0.29968   0.31188   0.14799  -0.12889
C          C       0.25649   0.28970   0.14226   0.05835
C          C       0.23434   0.31231   0.13208  -0.10921
C          C       0.25451   0.35530   0.13324  -0.13447
C          C       0.23520   0.24337   0.15426   0.06821
C          C       0.57079   0.52593   0.73434   0.06609
C          C       0.67871   0.35752   0.73487   0.07614
C          C       0.72019   0.38180   0.75521  -0.19196
C          C       0.73622   0.42421   0.76348   0.07578
C          C       0.70985   0.44199   0.75387  -0.19462
C          C       0.66812   0.41833   0.73470   0.07280
C          C       0.65292   0.37602   0.72599  -0.19215
C          C       0.64093   0.43780   0.72399   0.05914
C          C       0.66244   0.31344   0.72094   0.05758
C          C       0.78023   0.44997   0.78041   0.05762
C          C       0.64210   0.46130   0.84122  -0.12963
C          C       0.61614   0.47903   0.83537  -0.17861
C          C       0.58810   0.47427   0.70960   0.19853
C          C       0.58617   0.44994   0.59519  -0.15847
C          C       0.61236   0.43243   0.60126  -0.13430
C          C       0.79785   0.42852   0.90751  -0.13207
C          C       0.83953   0.45294   0.92093  -0.18271
C          C       0.86509   0.50004   0.80614   0.20364
C          C       0.84718   0.52187   0.68346  -0.16190
C          C       0.80576   0.49717   0.66927  -0.12915
C          C       0.68859   0.30593   0.61452  -0.13407
C          C       0.67341   0.26451   0.60077  -0.15876
C          C       0.63084   0.22910   0.69030   0.20024
C          C       0.60478   0.23606   0.80094  -0.18190
C          C       0.62028   0.27741   0.81566  -0.12768
C          C       0.54295   0.54364   0.73486   0.05309
C          C       0.50419   0.52576   0.67804  -0.10735
C          C       0.47915   0.54445   0.67543  -0.12785
C          C       0.49157   0.58108   0.73198   0.06024
C          C       0.53002   0.59849   0.79171  -0.11111
C          C       0.55531   0.58021   0.79171  -0.13375
C          C       0.46513   0.60064   0.72354   0.06092
C          C       0.45087   0.65370   0.76226   0.19805
C          C       0.41018   0.63613   0.72387  -0.15046
C          C       0.38735   0.65697   0.72421  -0.12594
C          C       0.40371   0.69649   0.76067   0.05706
C          C       0.44444   0.71397   0.79823  -0.12863
C          C       0.46746   0.69312   0.79863  -0.13979
C          C       0.37877   0.71821   0.75842   0.07297
C          C       0.33568   0.69569   0.75571  -0.17335
C          C       0.31045   0.71436   0.75873   0.07713
C          C       0.32934   0.75770   0.75853  -0.18137
C          C       0.37246   0.78158   0.75862   0.07265
C          C       0.39660   0.76152   0.75979  -0.18340
C          C       0.26466   0.68796   0.76787   0.05666
C          C       0.39212   0.82772   0.75431   0.05681
C          C       0.25034   0.66018   0.66317  -0.12038
C          C       0.20729   0.63409   0.67418  -0.16052
C          C       0.17695   0.63535   0.78879   0.19786
C          C       0.19099   0.66229   0.89798  -0.18118
C          C       0.23424   0.68829   0.88722  -0.12677
C          C       0.38108   0.85842   0.63918  -0.12887
C          C       0.39952   0.90203   0.63268  -0.15871
C          C       0.43065   0.91697   0.73708   0.20230
C          C       0.44054   0.88586   0.85956  -0.18891
C          C       0.42162   0.84210   0.86655  -0.12870
C          C       0.10710   0.61928   0.81645   0.06198
C          C       0.06232   0.59040   0.82474   0.06124
C          C       0.04647   0.54806   0.81334  -0.10910
C          C       0.00384   0.52208   0.81591  -0.13396
C          C       0.97611   0.53787   0.82888   0.05818
C          C       0.99177   0.57981   0.84367  -0.10831
C          C       0.03432   0.60565   0.84152  -0.13499
C          C       0.93206   0.51129   0.82112   0.06484
C          C       0.57774   0.16604   0.65922   0.06663
C          C       0.55711   0.12068   0.66185   0.06271
C          C       0.57842   0.09731   0.67000  -0.10550
C          C       0.55643   0.05318   0.68236  -0.13195
C          C       0.51265   0.03105   0.68822   0.05879
C          C       0.49151   0.05474   0.67621  -0.10429
C          C       0.51358   0.09889   0.66274  -0.13342
C          C       0.49010   0.98429   0.70654   0.06746
N          N       0.30594   0.74415   0.25005  -0.28563
N          N       0.23417   0.90278   0.25284  -0.28388
N          N       0.87823   0.86103   0.33857  -0.28557
N          N       0.65320   0.78495   0.31389  -0.28892
N          N       0.35310   0.43860   0.20326  -0.28322
N          N       0.19492   0.22025   0.16618  -0.28225
N          N       0.56063   0.49076   0.69709  -0.29162
N          N       0.47621   0.63498   0.76897  -0.28654
N          N       0.13437   0.60769   0.79231  -0.28641
N          N       0.90715   0.52686   0.81152  -0.28054
N          N       0.61653   0.18793   0.67210  -0.27998
N          N       0.44996   0.96214   0.71520  -0.28674

