data_crystal

_audit_creation_method 'AiiDA-DDEC plugin'

_cell_length_a        31.12223
_cell_length_b        22.95419
_cell_length_c         9.61950

_cell_angle_alpha     90.23430
_cell_angle_beta     92.26405
_cell_angle_gamma     90.03186

_symmetry_space_group_name_Hall 'P 1'
_symmetry_space_group_name_H-M  'P 1'

loop_
_symmetry_equiv_pos_as_xyz
 'x,y,z'

loop_
_atom_site_label
_atom_site_type_symbol
_atom_site_fract_x
_atom_site_fract_y
_atom_site_fract_z
_atom_site_charge
H          H       0.43796   0.46408   0.50835   0.09925
H          H       0.57595   0.51675   0.48364   0.10449
H          H       0.06355   0.96006   0.99322   0.10128
H          H       0.92394   0.01418   0.03205   0.10497
H          H       0.37175   0.40318   0.49220   0.12401
H          H       0.63911   0.58205   0.46761   0.12251
H          H       0.12951   0.89902   0.01369   0.12450
H          H       0.86132   0.07986   0.05316   0.12181
H          H       0.48927   0.36914   0.16765   0.10615
H          H       0.50577   0.62247   0.18602   0.10080
H          H       0.01172   0.87014   0.33931   0.10563
H          H       0.99775   0.12363   0.31485   0.10000
H          H       0.42341   0.30937   0.14829   0.11344
H          H       0.56900   0.68537   0.16314   0.11303
H          H       0.07746   0.81054   0.36327   0.11428
H          H       0.93532   0.18758   0.34099   0.11435
H          H       0.88092   0.36240   0.02516   0.11012
H          H       0.12093   0.64653   0.01881   0.11186
H          H       0.61829   0.86746   0.48680   0.11713
H          H       0.38053   0.13943   0.48725   0.11144
H          H       0.83480   0.41108   0.47190   0.10910
H          H       0.12746   0.63062   0.52255   0.11199
H          H       0.66476   0.90631   0.02430   0.10997
H          H       0.33156   0.09304  -0.00002   0.10866
H          H       0.82961   0.34071   0.08442   0.10748
H          H       0.17496   0.66382   0.07407   0.10484
H          H       0.64559   0.80114   0.44536   0.09486
H          H       0.32665   0.15492   0.42758   0.10411
H          H       0.75342   0.43051   0.10717   0.11749
H          H       0.24706   0.57590   0.09015   0.11804
H          H       0.74642   0.92291   0.39240   0.11957
H          H       0.25657   0.07590   0.40009   0.11376
H          H       0.70515   0.42456  -0.00229   0.10539
H          H       0.29462   0.58606   0.99161   0.10696
H          H       0.79376   0.92119   0.50743   0.10689
H          H       0.20945   0.07386   0.50408   0.10813
H          H       0.72515   0.36286   0.09376   0.09955
H          H       0.27302   0.64530   0.08851   0.09512
H          H       0.77504   0.85636   0.41980   0.09750
H          H       0.22387   0.13918   0.41640   0.09542
H          H       0.27271   0.32241   0.30354   0.12111
H          H       0.72659   0.66517   0.26978   0.11979
H          H       0.22829   0.82462   0.21545   0.12079
H          H       0.77596   0.16421   0.24078   0.11968
H          H       0.19980   0.27961   0.25294   0.10838
H          H       0.79864   0.70785   0.22442   0.10788
H          H       0.30180   0.78248   0.25618   0.10830
H          H       0.70327   0.20584   0.28206   0.10854
H          H       0.15463   0.20756   0.18081   0.06080
H          H       0.84280   0.78144   0.16148   0.06344
H          H       0.34796   0.70909   0.31729   0.06089
H          H       0.65823   0.27925   0.33427   0.06191
H          H       0.62198   0.74366   0.21092   0.06981
H          H       0.37600   0.24709   0.22135   0.07115
H          H       0.87983   0.24442   0.30350   0.07157
H          H       0.12601   0.74819   0.29975   0.07148
H          H       0.93645   0.98268   0.36368   0.09978
H          H       0.07474   0.98799   0.32458   0.10441
H          H       0.56910   0.48907   0.15724   0.09946
H          H       0.42750   0.48845   0.17873   0.10317
H          H       0.86206   0.94326   0.36473   0.12279
H          H       0.14736   0.03159   0.32447   0.12237
H          H       0.64274   0.44783   0.15924   0.12187
H          H       0.35486   0.53211   0.17689   0.12351
H          H       0.96264   0.87664   0.00877   0.10614
H          H       0.02794   0.11876   0.03912   0.10223
H          H       0.53561   0.37167   0.48165   0.10677
H          H       0.47380   0.61996   0.46561   0.10211
H          H       0.88877   0.83617   0.00997   0.10995
H          H       0.10060   0.16200   0.03628   0.11256
H          H       0.60895   0.32948   0.48321   0.11123
H          H       0.40110   0.66343   0.46620   0.11170
H          H       0.43013   0.48475   0.98449   0.10223
H          H       0.56775   0.53919   0.01183   0.10118
H          H       0.06786   0.98658   0.51890   0.10259
H          H       0.93208   0.04282   0.48924   0.10076
H          H       0.36691   0.41853   0.96920   0.12211
H          H       0.63329   0.60042  -0.00273   0.12483
H          H       0.13169   0.92156   0.53040   0.12243
H          H       0.86592   0.10196   0.50936   0.12498
H          H       0.49329   0.37900   0.68554   0.10301
H          H       0.50866   0.63216   0.66863   0.10643
H          H       0.00721   0.88039   0.82046   0.10167
H          H       0.98928   0.13060   0.84552   0.10312
H          H       0.43007   0.31501   0.66428   0.11381
H          H       0.57429   0.69156   0.64925   0.11303
H          H       0.07070   0.81715   0.83676   0.11332
H          H       0.92286   0.18797   0.87031   0.11252
H          H       0.88414   0.37175   0.50504   0.11273
H          H       0.18124   0.64827   0.57972   0.10576
H          H       0.61441   0.86767   0.01373   0.11227
H          H       0.37865   0.13818   0.98776   0.11286
H          H       0.83545   0.41042   0.00423   0.10737
H          H       0.16382   0.59678   0.98320   0.10802
H          H       0.67341   0.86950   0.43919   0.11074
H          H       0.33766   0.08991   0.52521   0.10823
H          H       0.83548   0.34682   0.57753   0.10771
H          H       0.17115   0.58345   0.47886   0.10879
H          H       0.66080   0.83768   0.93504   0.10751
H          H       0.32733   0.16471   0.92712   0.10387
H          H       0.76569   0.40530   0.61265   0.10184
H          H       0.24822   0.58713   0.61683   0.10490
H          H       0.73903   0.91949   0.90368   0.11436
H          H       0.21585   0.13924   0.92739   0.09938
H          H       0.72363   0.43909   0.50677   0.12043
H          H       0.29031   0.56085   0.50879   0.11430
H          H       0.78676   0.92716   0.01551   0.11218
H          H       0.25204   0.08273   0.88172   0.11315
H          H       0.71862   0.36514   0.55924   0.09987
H          H       0.28973   0.63500   0.56567   0.09738
H          H       0.77444   0.85922   0.93164   0.09674
H          H       0.20823   0.06756   0.99404   0.11078
H          H       0.27576   0.33300   0.77238   0.11980
H          H       0.72861   0.67910   0.81502   0.12023
H          H       0.22437   0.83378   0.70780   0.11981
H          H       0.76978   0.17548   0.71475   0.12187
H          H       0.20281   0.29078   0.72049   0.10796
H          H       0.80083   0.72172   0.77291   0.10770
H          H       0.29749   0.79137   0.75565   0.10838
H          H       0.69755   0.21812   0.75787   0.10840
H          H       0.15750   0.21790   0.65629   0.06350
H          H       0.84535   0.79274   0.69766   0.06282
H          H       0.34290   0.72031   0.83100   0.06306
H          H       0.65313   0.29141   0.82704   0.06187
H          H       0.62389   0.75436   0.72156   0.07130
H          H       0.37933   0.25557   0.71411   0.07190
H          H       0.87442   0.25292   0.79361   0.07061
H          H       0.12125   0.75895   0.78604   0.07201
H          H       0.92815   0.01609   0.82741   0.10365
H          H       0.06973   0.01601   0.85390   0.10078
H          H       0.57010   0.51233   0.67640   0.10262
H          H       0.42971   0.51204   0.65327   0.10097
H          H       0.85595   0.97147   0.83439   0.12386
H          H       0.14402   0.05413   0.84752   0.12147
H          H       0.64224   0.46689   0.66771   0.12274
H          H       0.35604   0.55272   0.64973   0.12109
H          H       0.96748   0.88146   0.54849   0.10537
H          H       0.03093   0.12758   0.51492   0.10393
H          H       0.53241   0.38361   0.96999   0.10374
H          H       0.46796   0.62910   0.98463   0.10532
H          H       0.89550   0.83669   0.55467   0.11184
H          H       0.10532   0.16604   0.50719   0.11112
H          H       0.60462   0.33927   0.96587   0.11136
H          H       0.39409   0.66980   0.98285   0.11110
C          C       0.95435   0.93404   0.18395   0.05505
C          C       0.04568   0.04961   0.18123   0.05708
C          C       0.54732   0.43468   0.32162   0.05362
C          C       0.45627   0.55055   0.32249   0.05684
C          C       0.94089   0.89049   0.08836  -0.12193
C          C       0.05389   0.10002   0.10348  -0.12273
C          C       0.55886   0.38778   0.40945  -0.12270
C          C       0.44801   0.60122   0.40014  -0.12289
C          C       0.89952   0.86728   0.08962  -0.18631
C          C       0.09470   0.12500   0.10326  -0.18725
C          C       0.59992   0.36361   0.40958  -0.18768
C          C       0.40729   0.62636   0.39906  -0.18700
C          C       0.87030   0.88697   0.18783   0.19387
C          C       0.12912   0.10021   0.18219   0.19614
C          C       0.63098   0.38587   0.32105   0.19744
C          C       0.37303   0.60150   0.31898   0.19682
C          C       0.88420   0.92897   0.28688  -0.16031
C          C       0.12095   0.05051   0.26248  -0.15959
C          C       0.61911   0.43145   0.22971  -0.16065
C          C       0.38119   0.55140   0.23902  -0.16082
C          C       0.92568   0.95093   0.28596  -0.11655
C          C       0.08011   0.02656   0.26306  -0.11780
C          C       0.57794   0.45427   0.22870  -0.11336
C          C       0.42200   0.52737   0.23956  -0.11810
C          C       0.65034   0.71768   0.24159   0.08056
C          C       0.34860   0.27327   0.25310   0.08467
C          C       0.85174   0.21773   0.27324   0.08420
C          C       0.15317   0.77382   0.26424   0.08499
C          C       0.69218   0.74331   0.21574  -0.02021
C          C       0.30615   0.24756   0.22854  -0.02046
C          C       0.80960   0.24270   0.29852  -0.01828
C          C       0.19588   0.74884   0.28792  -0.02216
C          C       0.73596   0.82573   0.14044   0.11642
C          C       0.26096   0.16671   0.13905   0.11610
C          C       0.76464   0.32516   0.36815   0.11485
C          C       0.24213   0.66753   0.36529   0.11375
C          C       0.69538   0.80110   0.16675   0.09868
C          C       0.30205   0.19148   0.16794   0.09674
C          C       0.80571   0.30077   0.34726   0.09555
C          C       0.20078   0.69220   0.34417   0.09974
C          C       0.46800   0.42205   0.33768   0.05915
C          C       0.53615   0.56406   0.33498   0.06367
C          C       0.03346   0.92088   0.16724   0.05894
C          C       0.96565   0.06319   0.17338   0.06425
C          C       0.46393   0.37588   0.24074  -0.12540
C          C       0.53477   0.61394   0.24949  -0.12643
C          C       0.03722   0.87582   0.26636  -0.12382
C          C       0.96803   0.11432   0.25568  -0.12866
C          C       0.42694   0.34185   0.23063  -0.17572
C          C       0.57037   0.65000   0.23809  -0.17421
C          C       0.07413   0.84187   0.27900  -0.17657
C          C       0.93281   0.15091   0.26908  -0.17347
C          C       0.39275   0.35212   0.31990   0.19782
C          C       0.60904   0.63812   0.31439   0.19668
C          C       0.10848   0.85092   0.18983   0.19859
C          C       0.89326   0.13806   0.19849   0.19761
C          C       0.39779   0.39611   0.42183  -0.15262
C          C       0.60959   0.59048   0.40666  -0.15104
C          C       0.10350   0.89325   0.08468  -0.15463
C          C       0.89157   0.08901   0.10956  -0.14982
C          C       0.43482   0.42969   0.43098  -0.11930
C          C       0.57405   0.55456   0.41653  -0.12435
C          C       0.06660   0.92701   0.07329  -0.11960
C          C       0.92681   0.05271   0.09727  -0.12423
C          C       0.18020   0.17464   0.17385   0.07931
C          C       0.81756   0.81494   0.16745   0.08048
C          C       0.32234   0.67632   0.32647   0.07898
C          C       0.68338   0.31310   0.33661   0.07934
C          C       0.22365   0.19837   0.17360  -0.04298
C          C       0.77376   0.79231   0.16561  -0.04293
C          C       0.27900   0.70007   0.33111  -0.04115
C          C       0.72728   0.29079   0.34139  -0.03933
C          C       0.26874   0.27920   0.25816  -0.11783
C          C       0.72997   0.70979   0.23434  -0.11761
C          C       0.23291   0.78112   0.25770  -0.11587
C          C       0.77213   0.20872   0.27720  -0.11234
C          C       0.22868   0.25543   0.22885  -0.14063
C          C       0.76950   0.73355   0.20770  -0.13903
C          C       0.27335   0.75767   0.28137  -0.14267
C          C       0.73216   0.23195   0.30075  -0.13904
C          C       0.99698   0.96214   0.17298  -0.02316
C          C       0.00245   0.02201   0.17408  -0.03226
C          C       0.50478   0.46294   0.33167  -0.02533
C          C       0.49935   0.52283   0.33141  -0.03209
C          C       0.84924   0.36797   0.48739  -0.18438
C          C       0.16130   0.62868   0.49545  -0.17877
C          C       0.64947   0.86332   0.02278  -0.18638
C          C       0.34407   0.13762   0.00563  -0.18199
C          C       0.73414   0.40210   0.03732  -0.18751
C          C       0.26508   0.60628   0.02690  -0.19230
C          C       0.76527   0.89719   0.46868  -0.18977
C          C       0.23631   0.10047   0.47032  -0.18863
C          C       0.95342   0.95268   0.68654   0.05763
C          C       0.04512   0.06760   0.68225   0.05478
C          C       0.54571   0.45146   0.82313   0.05678
C          C       0.45406   0.56651   0.82103   0.05538
C          C       0.94343   0.90071   0.61361  -0.12216
C          C       0.05559   0.11211   0.58907  -0.12167
C          C       0.55610   0.40136   0.90157  -0.12017
C          C       0.44359   0.61287   0.90994  -0.12191
C          C       0.90298   0.87497   0.61820  -0.18785
C          C       0.09726   0.13423   0.58559  -0.18844
C          C       0.59658   0.37575   0.89786  -0.18630
C          C       0.40226   0.63628   0.90805  -0.18882
C          C       0.87060   0.90060   0.69663   0.19514
C          C       0.12989   0.11278   0.67742   0.19607
C          C       0.62834   0.39932   0.81395   0.19445
C          C       0.36997   0.61413   0.81542   0.19611
C          C       0.88066   0.95186   0.77241  -0.16084
C          C       0.11915   0.06992   0.77456  -0.16144
C          C       0.61791   0.44886   0.73335  -0.15881
C          C       0.38067   0.56912   0.72311  -0.16126
C          C       0.92123   0.97656   0.76869  -0.11968
C          C       0.07751   0.04879   0.77795  -0.11149
C          C       0.57743   0.47375   0.73740  -0.12018
C          C       0.42198   0.54669   0.72502  -0.11136
C          C       0.65184   0.72816   0.75526   0.08265
C          C       0.35141   0.28153   0.74241   0.08373
C          C       0.84634   0.22659   0.76130   0.08627
C          C       0.14887   0.78442   0.75340   0.08616
C          C       0.69412   0.75309   0.73277  -0.02169
C          C       0.30915   0.25580   0.71271  -0.02059
C          C       0.80424   0.25159   0.78605  -0.02265
C          C       0.19119   0.75827   0.77797  -0.02011
C          C       0.73823   0.83266   0.64357   0.12391
C          C       0.26376   0.17348   0.63285   0.11179
C          C       0.76025   0.33264   0.86960   0.11392
C          C       0.23672   0.67666   0.85990   0.10960
C          C       0.69756   0.80822   0.67011   0.09936
C          C       0.30495   0.19851   0.65883   0.09954
C          C       0.80094   0.30801   0.84418   0.09689
C          C       0.19549   0.70187   0.83591   0.09885
C          C       0.46637   0.43739   0.83556   0.06133
C          C       0.53385   0.58001   0.83930   0.06037
C          C       0.03288   0.93907   0.66977   0.06157
C          C       0.96511   0.08112   0.66809   0.05745
C          C       0.46597   0.38728   0.74993  -0.12445
C          C       0.53576   0.62567   0.74192  -0.12801
C          C       0.03409   0.88905   0.75466  -0.12587
C          C       0.96251   0.12499   0.77044  -0.12567
C          C       0.43042   0.35063   0.73921  -0.17575
C          C       0.57254   0.65963   0.73211  -0.17784
C          C       0.06986   0.85284   0.76267  -0.17430
C          C       0.92531   0.15784   0.78337  -0.17719
C          C       0.39363   0.36209   0.81605   0.19789
C          C       0.60868   0.65009   0.82273   0.19895
C          C       0.10616   0.86474   0.68404   0.19799
C          C       0.88954   0.14913   0.69054   0.19983
C          C       0.39489   0.41028   0.90778  -0.15115
C          C       0.60582   0.60683   0.92552  -0.15294
C          C       0.10411   0.91290   0.59328  -0.15096
C          C       0.89311   0.10785   0.58271  -0.15421
C          C       0.43042   0.44677   0.91713  -0.12420
C          C       0.56909   0.57301   0.93372  -0.11823
C          C       0.06827   0.94879   0.58612  -0.12643
C          C       0.93026   0.07506   0.57158  -0.11784
C          C       0.18265   0.18412   0.65821   0.07995
C          C       0.81957   0.82555   0.68916   0.07808
C          C       0.31767   0.68657   0.82909   0.08174
C          C       0.67902   0.32421   0.82828   0.08122
C          C       0.22645   0.20672   0.65798  -0.04013
C          C       0.77609   0.80176   0.68501  -0.04452
C          C       0.27389   0.70913   0.82857  -0.04044
C          C       0.72247   0.30051   0.83344  -0.04052
C          C       0.27167   0.28882   0.73297  -0.11630
C          C       0.73199   0.72175   0.76802  -0.11906
C          C       0.22858   0.79024   0.75008  -0.11561
C          C       0.76639   0.21916   0.75703  -0.11765
C          C       0.23159   0.26524   0.70320  -0.14181
C          C       0.77165   0.74540   0.74278  -0.13752
C          C       0.26871   0.76669   0.77809  -0.14180
C          C       0.72674   0.24283   0.78262  -0.14062
C          C       0.99626   0.98032   0.67512  -0.03239
C          C       0.00197   0.04012   0.67360  -0.02348
C          C       0.50279   0.47904   0.83223  -0.03037
C          C       0.49707   0.53885   0.83255  -0.02653
C          C       0.84609   0.36493   0.00431  -0.18114
C          C       0.15478   0.64272   0.99265  -0.18030
C          C       0.64915   0.84451   0.49305  -0.18792
C          C       0.34653   0.13570   0.51189  -0.17874
C          C       0.74128   0.39867   0.52843  -0.18731
C          C       0.26972   0.59792   0.53288  -0.18913
C          C       0.76078   0.89791   0.97973  -0.18883
C          C       0.23218   0.09972   0.96438  -0.19038
N          N       0.64814   0.66684   0.29911  -0.29366
N          N       0.35276   0.32444   0.30917  -0.28703
N          N       0.85424   0.16670   0.21587  -0.29384
N          N       0.14856   0.82367   0.20285  -0.28849
N          N       0.17163   0.11960   0.17967  -0.27170
N          N       0.82732   0.86914   0.18773  -0.26812
N          N       0.33070   0.62123   0.32161  -0.26773
N          N       0.67374   0.36763   0.32411  -0.26633
N          N       0.64850   0.67752   0.81257  -0.28488
N          N       0.35443   0.33270   0.79966  -0.29183
N          N       0.84956   0.17590   0.70307  -0.28591
N          N       0.14544   0.83537   0.69617  -0.29400
N          N       0.17300   0.12983   0.67417  -0.26703
N          N       0.82815   0.88069   0.69569  -0.27312
N          N       0.32707   0.63209   0.81490  -0.26617
N          N       0.67066   0.37911   0.81405  -0.27372
O          O       0.73542   0.88227   0.09723  -0.15640
O          O       0.26059   0.11182   0.08418  -0.15498
O          O       0.76287   0.38298   0.40256  -0.17067
O          O       0.24354   0.61108   0.40911  -0.16411
O          O       0.65811   0.83300   0.15318  -0.17657
O          O       0.33936   0.16162   0.14431  -0.18136
O          O       0.84315   0.33238   0.36310  -0.17578
O          O       0.16388   0.66179   0.36778  -0.17504
O          O       0.73718   0.88604   0.58244  -0.15410
O          O       0.26333   0.11664   0.59064  -0.15961
O          O       0.76111   0.38786   0.92257  -0.15658
O          O       0.23712   0.62072   0.90787  -0.15948
O          O       0.66032   0.83894   0.63998  -0.19201
O          O       0.34211   0.16773   0.64102  -0.17877
O          O       0.83843   0.33874   0.86780  -0.18223
O          O       0.15822   0.67231   0.86042  -0.17917

