data_crystal

_audit_creation_method 'AiiDA-DDEC plugin'

_cell_length_a        38.60796
_cell_length_b        38.65411
_cell_length_c        10.02237

_cell_angle_alpha     89.55670
_cell_angle_beta     90.05173
_cell_angle_gamma     119.97773

_symmetry_space_group_name_Hall 'P 1'
_symmetry_space_group_name_H-M  'P 1'

loop_
_symmetry_equiv_pos_as_xyz
 'x,y,z'

loop_
_atom_site_label
_atom_site_type_symbol
_atom_site_fract_x
_atom_site_fract_y
_atom_site_fract_z
_atom_site_charge
H          H       0.52493   0.46101   0.11248   0.10338
H          H       0.54532   0.05037   0.07407   0.10142
H          H       0.93530   0.46968   0.11575   0.10622
H          H       0.49719   0.54618   0.07626   0.10364
H          H       0.45848   0.94083   0.09596   0.10055
H          H       0.05477   0.50269   0.06268   0.10254
H          H       0.52019   0.39493   0.09018   0.11187
H          H       0.61038   0.11379   0.05380   0.11151
H          H       0.87347   0.47405   0.10766   0.11532
H          H       0.49644   0.60997   0.06015   0.11364
H          H       0.39306   0.87837   0.07924   0.11082
H          H       0.11966   0.50375   0.05334   0.11066
H          H       0.43833   0.35068   0.42196   0.12563
H          H       0.64377   0.09184   0.44178   0.12107
H          H       0.92409   0.56993   0.39001   0.12663
H          H       0.54945   0.64235   0.45031   0.11944
H          H       0.35229   0.91168   0.42879   0.12339
H          H       0.09791   0.45200   0.44758   0.11925
H          H       0.44123   0.41608   0.43733   0.10994
H          H       0.57988   0.02791   0.45733   0.10602
H          H       0.98599   0.56546   0.39792   0.11038
H          H       0.55183   0.57964   0.46274   0.10496
H          H       0.41704   0.97529   0.43911   0.10955
H          H       0.03247   0.44929   0.45344   0.10757
H          H       0.46446   0.53011   0.43210   0.10001
H          H       0.46981   0.92816   0.42022   0.10014
H          H       0.07103   0.53801   0.41354   0.10010
H          H       0.54631   0.47227   0.42325   0.10135
H          H       0.53003   0.06893   0.41777   0.09951
H          H       0.93565   0.45431   0.43047   0.09754
H          H       0.40019   0.52891   0.42479   0.11032
H          H       0.47209   0.86572   0.41301   0.11174
H          H       0.13254   0.60369   0.41161   0.11130
H          H       0.61158   0.47615   0.41165   0.11333
H          H       0.52689   0.13095   0.41154   0.11177
H          H       0.87224   0.39053   0.42279   0.11490
H          H       0.41870   0.43121   0.16118   0.10788
H          H       0.57058   0.98422   0.15333   0.10737
H          H       0.01862   0.58022   0.12228   0.10307
H          H       0.58804   0.57270   0.15460   0.10958
H          H       0.43141   0.01438   0.14449   0.10525
H          H       0.98517   0.41327   0.12802   0.11030
H          H       0.35422   0.43069   0.15128   0.12819
H          H       0.57140   0.92040   0.13977   0.12782
H          H       0.08112   0.64585   0.11635   0.12709
H          H       0.65388   0.57577   0.13922   0.12685
H          H       0.42963   0.07772   0.13255   0.12732
H          H       0.92035   0.34933   0.11559   0.12650
H          H       0.33445   0.49683   0.46469   0.06519
H          H       0.50788   0.83507   0.45655   0.06644
H          H       0.16188   0.66948   0.45293   0.07030
H          H       0.67432   0.50692   0.44855   0.07087
H          H       0.49286   0.16197   0.45321   0.07013
H          H       0.83776   0.32563   0.44886   0.06877
H          H       0.29421   0.51918   0.54492   0.10507
H          H       0.48780   0.77430   0.54404   0.10175
H          H       0.22619   0.70720   0.53020   0.11262
H          H       0.70602   0.47116   0.49537   0.11725
H          H       0.52177   0.22667   0.52107   0.11496
H          H       0.77360   0.28907   0.52429   0.11184
H          H       0.23226   0.52334   0.54328   0.10258
H          H       0.48317   0.70807   0.54845   0.10009
H          H       0.29256   0.76891   0.53206   0.10920
H          H       0.76539   0.46215   0.48423   0.11434
H          H       0.52785   0.29373   0.51963   0.11217
H          H       0.70680   0.22796   0.52614   0.10556
H          H       0.17566   0.46926   0.14940   0.30789
H          H       0.53071   0.70092   0.14577   0.30710
H          H       0.29245   0.83330   0.15578   0.30838
H          H       0.84343   0.55219   0.17296   0.30916
H          H       0.45608   0.29051   0.16064   0.31043
H          H       0.70541   0.16666   0.14378   0.30922
H          H       0.24539   0.45532   0.06834   0.36083
H          H       0.54500   0.78424   0.05724   0.35749
H          H       0.20638   0.76769   0.08083   0.36731
H          H       0.78030   0.57794   0.11251   0.37158
H          H       0.43299   0.20330   0.09238   0.36931
H          H       0.79090   0.23254   0.06620   0.36434
H          H       0.16763   0.50600   0.43950   0.08026
H          H       0.49797   0.65937   0.44513   0.07940
H          H       0.33966   0.83472   0.43607   0.08071
H          H       0.83128   0.48174   0.39378   0.08797
H          H       0.50845   0.34027   0.42799   0.08268
H          H       0.65920   0.16278   0.42927   0.07949
H          H       0.51596   0.45920   0.59462   0.10265
H          H       0.53775   0.07124   0.62966   0.10797
H          H       0.94033   0.49004   0.57664   0.10319
H          H       0.46087   0.53855   0.66270   0.10947
H          H       0.45918   0.93846   0.60347   0.10234
H          H       0.06982   0.53569   0.63222   0.10948
H          H       0.51551   0.39483   0.58143   0.11167
H          H       0.60373   0.13297   0.62483   0.11462
H          H       0.87675   0.49145   0.57015   0.10835
H          H       0.46683   0.60500   0.66493   0.11150
H          H       0.39404   0.87546   0.59308   0.11214
H          H       0.13165   0.53167   0.63392   0.11413
H          H       0.44111   0.35290   0.93206   0.12330
H          H       0.65286   0.07529   0.86501   0.12693
H          H       0.90685   0.55410   0.94301   0.12132
H          H       0.58046   0.65340   0.86229   0.12762
H          H       0.35102   0.91451   0.92198   0.12580
H          H       0.07144   0.42173   0.85772   0.12782
H          H       0.43921   0.41622   0.93817   0.11177
H          H       0.58630   0.01395   0.87427   0.11544
H          H       0.97161   0.55502   0.94412   0.11287
H          H       0.57366   0.58632   0.86613   0.11481
H          H       0.41570   0.97846   0.92723   0.11045
H          H       0.01024   0.42719   0.86435   0.11394
H          H       0.44582   0.50513   0.97792   0.10238
H          H       0.48400   0.93939   0.94642   0.09726
H          H       0.06075   0.54436   0.94404   0.09809
H          H       0.53824   0.47767   0.93849   0.09621
H          H       0.52011   0.06428   0.94386   0.09819
H          H       0.93126   0.45969   0.91627   0.10033
H          H       0.37931   0.49941   0.97927   0.11827
H          H       0.48992   0.87882   0.95454   0.11694
H          H       0.12400   0.60805   0.94270   0.11449
H          H       0.60253   0.47838   0.93941   0.11328
H          H       0.51780   0.12654   0.94427   0.11433
H          H       0.86926   0.39468   0.91509   0.11266
H          H       0.41939   0.44432   0.60212   0.10570
H          H       0.55718   0.97951   0.59360   0.10228
H          H       0.01656   0.58568   0.62271   0.10852
H          H       0.57768   0.55933   0.60648   0.10147
H          H       0.43465   0.01921   0.62475   0.10702
H          H       0.98001   0.42065   0.60526   0.10371
H          H       0.35297   0.44022   0.60016   0.12641
H          H       0.56147   0.91750   0.59671   0.12603
H          H       0.08146   0.64990   0.61690   0.12694
H          H       0.64175   0.55891   0.60230   0.12628
H          H       0.43345   0.08298   0.62093   0.12710
H          H       0.91703   0.35537   0.60082   0.12751
H          H       0.34126   0.52008   0.88597   0.06212
H          H       0.47564   0.82286   0.86738   0.06001
H          H       0.16398   0.66959   0.95498   0.07069
H          H       0.66754   0.50891   0.96122   0.07033
H          H       0.49198   0.16366   0.96359   0.07057
H          H       0.83294   0.33208   0.93706   0.07151
H          H       0.30430   0.54825   0.93682   0.11333
H          H       0.44755   0.75855   0.91997   0.11197
H          H       0.23150   0.70075   0.00279   0.11620
H          H       0.70420   0.48026   0.03756   0.11339
H          H       0.52688   0.23097   0.01860   0.11490
H          H       0.76332   0.30068   0.97220   0.11672
H          H       0.24279   0.55357   0.92887   0.11453
H          H       0.44286   0.69206   0.92005   0.11475
H          H       0.29928   0.76084  -0.00227   0.11283
H          H       0.76569   0.47508   0.03898   0.10813
H          H       0.53456   0.29862   0.01277   0.11210
H          H       0.69575   0.24047   0.95840   0.11492
H          H       0.15613   0.44414   0.69991   0.31182
H          H       0.55775   0.71656   0.72214   0.31106
H          H       0.28952   0.83810   0.67880   0.30769
H          H       0.82987   0.54041   0.66258   0.30883
H          H       0.45533   0.29191   0.67133   0.30885
H          H       0.71453   0.15959   0.68385   0.31013
H          H       0.21920   0.41916   0.64733   0.37283
H          H       0.58430   0.80515   0.66861   0.37126
H          H       0.20137   0.77564   0.61637   0.37136
H          H       0.76460   0.56079   0.58867   0.36580
H          H       0.42991   0.20417   0.61154   0.37079
H          H       0.80202   0.22496   0.61823   0.37292
H          H       0.17398   0.52832   0.85185   0.08436
H          H       0.47031   0.64935   0.85622   0.08278
H          H       0.34516   0.82875   0.91353   0.08494
H          H       0.83187   0.49414   0.94275   0.08091
H          H       0.51283   0.34466   0.92527   0.08258
H          H       0.65103   0.17378   0.86971   0.08466
C          C       0.48617   0.48310   0.28802  -0.03278
C          C       0.51772   0.99817   0.28112  -0.03031
C          C       0.00236   0.51447   0.26632  -0.03229
C          C       0.52202   0.51862   0.28534  -0.03279
C          C       0.48261  -0.00071   0.27975  -0.03300
C          C       0.00189   0.47861   0.26988  -0.03095
C          C       0.44705   0.48140   0.29469   0.05181
C          C       0.51967   0.96096   0.28641   0.05267
C          C       0.03990   0.55375   0.26804   0.05579
C          C       0.56171   0.52168   0.28797   0.05615
C          C       0.48110   0.03679   0.28143   0.05688
C          C       0.96491   0.43915   0.27763   0.05317
C          C       0.41465   0.45254   0.21952  -0.13142
C          C       0.54905   0.95829   0.21048  -0.12766
C          C       0.04343   0.58527   0.18640  -0.12521
C          C       0.59324   0.55157   0.21093  -0.12761
C          C       0.45229   0.03987   0.20333  -0.12775
C          C       0.96039   0.40825   0.19253  -0.13180
C          C       0.37842   0.45193   0.21400  -0.15743
C          C       0.54983   0.92284   0.20288  -0.15972
C          C       0.07828   0.62220   0.18294  -0.15848
C          C       0.63009   0.55349   0.20198  -0.15736
C          C       0.45098   0.07509   0.19654  -0.15729
C          C       0.92434   0.37246   0.18527  -0.15804
C          C       0.37242   0.47947   0.28736   0.20063
C          C       0.52230   0.88881   0.27596   0.20255
C          C       0.11094   0.62990   0.26518   0.19824
C          C       0.63759   0.52653   0.27422   0.19793
C          C       0.47741   0.10848   0.27245   0.19789
C          C       0.89172   0.36523   0.26745   0.19822
C          C       0.40410   0.50734   0.36729  -0.17947
C          C       0.49380   0.89166   0.35624  -0.18153
C          C       0.10751   0.59875   0.34874  -0.17840
C          C       0.60665   0.49742   0.35508  -0.17738
C          C       0.50578   0.10543   0.35320  -0.17813
C          C       0.89677   0.39530   0.35756  -0.17693
C          C       0.44048   0.50817   0.37064  -0.11911
C          C       0.49255   0.92691   0.36035  -0.11908
C          C       0.07281   0.56160   0.34939  -0.12359
C          C       0.56974   0.49525   0.36163  -0.11615
C          C       0.50759   0.07042   0.35664  -0.12099
C          C       0.93258   0.43132   0.36193  -0.11608
C          C       0.48382   0.44364   0.27684   0.05786
C          C       0.55721   0.03552   0.26900   0.06830
C          C       0.96516   0.51688   0.25839   0.05153
C          C       0.52290   0.55751   0.27308   0.06961
C          C       0.44295   0.96216   0.27005   0.06085
C          C       0.03972   0.47735   0.26048   0.06995
C          C       0.45884   0.41171   0.36176  -0.11599
C          C       0.58608   0.04695   0.36982  -0.11957
C          C       0.96143   0.54542   0.33387  -0.11631
C          C       0.53899   0.58583   0.37546  -0.12270
C          C       0.41206   0.95389   0.36110  -0.11769
C          C       0.05171   0.46166   0.36622  -0.12051
C          C       0.45712   0.37487   0.35363  -0.18236
C          C       0.62199   0.08307   0.36180  -0.17969
C          C       0.92679   0.54811   0.32982  -0.17893
C          C       0.53736   0.62099   0.36932  -0.17983
C          C       0.37568   0.91811   0.35598  -0.18167
C          C       0.08869   0.46356   0.36387  -0.18033
C          C       0.47969   0.36873   0.25686   0.19744
C          C       0.63055   0.10812   0.24944   0.19716
C          C       0.89455   0.52190   0.25003   0.19578
C          C       0.52073   0.62938   0.25713   0.19911
C          C       0.36879   0.89018   0.25579   0.19700
C          C       0.11409   0.47991   0.25239   0.19892
C          C       0.50330   0.39978   0.16721  -0.17827
C          C       0.60320   0.09537   0.14332  -0.16556
C          C       0.89806   0.49383   0.17197  -0.18704
C          C       0.50761   0.60273   0.14952  -0.16145
C          C       0.39857   0.89929   0.15934  -0.17324
C          C       0.10081   0.49261   0.14174  -0.16466
C          C       0.50557   0.43664   0.17890  -0.11603
C          C       0.56687   0.05991   0.15479  -0.12275
C          C       0.93297   0.49167   0.17601  -0.11126
C          C       0.50811   0.56702   0.15886  -0.12363
C          C       0.43510   0.93444   0.16829  -0.11523
C          C       0.06447   0.49192   0.14722  -0.12422
C          C       0.32104   0.48952   0.36443   0.09201
C          C       0.51428   0.82846   0.35571   0.09190
C          C       0.16904   0.68336   0.35281   0.09463
C          C       0.68925   0.51724   0.35095   0.09355
C          C       0.48453   0.16804   0.35420   0.09158
C          C       0.83099   0.31309   0.34751   0.09277
C          C       0.28482   0.49201   0.35098  -0.02747
C          C       0.51205   0.78989   0.34473  -0.02562
C          C       0.20704   0.72082   0.34457  -0.02524
C          C       0.72593   0.51541   0.33812  -0.02354
C          C       0.48554   0.20620   0.34377  -0.02284
C          C       0.79215   0.27686   0.33592  -0.02534
C          C       0.25923   0.47830   0.23930   0.17422
C          C       0.52416   0.77689   0.23189   0.17274
C          C       0.21760   0.74932   0.24095   0.16900
C          C       0.75721   0.53894   0.24839   0.16836
C          C       0.46580   0.21591   0.24431   0.16716
C          C       0.78076   0.24966   0.22941   0.17007
C          C       0.22355   0.48010   0.23942   0.15911
C          C       0.52181   0.73921   0.23498   0.16106
C          C       0.25541   0.78450   0.24221   0.15650
C          C       0.79162   0.53490   0.24561   0.16038
C          C       0.46910   0.25400   0.24407   0.15689
C          C       0.74276   0.21470   0.23074   0.15623
C          C       0.21325   0.49596   0.34928  -0.06406
C          C       0.50735   0.71416   0.34906  -0.06454
C          C       0.28278   0.79187   0.34670  -0.06838
C          C       0.79439   0.50662   0.32839  -0.07151
C          C       0.49170   0.28239   0.34252  -0.06881
C          C       0.71577   0.20645   0.33760  -0.06617
C          C       0.23981   0.51085   0.45877  -0.14266
C          C       0.49446   0.72714   0.46037  -0.14046
C          C       0.27183   0.76319   0.45045  -0.13714
C          C       0.76282   0.48320   0.41813  -0.13482
C          C       0.51109   0.27222   0.44226  -0.13636
C          C       0.72726   0.23419   0.44307  -0.13854
C          C       0.27433   0.50855   0.45931  -0.14826
C          C       0.49703   0.76402   0.45762  -0.14881
C          C       0.23490   0.72888   0.44913  -0.14963
C          C       0.72989   0.48816   0.42393  -0.15201
C          C       0.50772   0.23499   0.44277  -0.15076
C          C       0.76445   0.26817   0.44192  -0.15186
C          C       0.17571   0.49548   0.34962   0.09585
C          C       0.50725   0.67689   0.35198   0.09668
C          C       0.32064   0.82859   0.34783   0.10096
C          C       0.82987   0.50324   0.32494   0.09910
C          C       0.49361   0.32056   0.34308   0.10243
C          C       0.67802   0.16966   0.33983   0.09838
C          C       0.47870   0.48116   0.77779  -0.02274
C          C       0.51718   0.00103   0.76583  -0.03284
C          C       0.99784   0.52013   0.76917  -0.02535
C          C       0.51390   0.51719   0.77315  -0.03794
C          C       0.48133   0.00059   0.77346  -0.02801
C          C       0.99811   0.48468   0.76075  -0.03676
C          C       0.43839   0.47701   0.78657   0.06243
C          C       0.51925   0.96359   0.76818   0.06098
C          C       0.03448   0.55969   0.78065   0.05877
C          C       0.55313   0.51851   0.77389   0.05974
C          C       0.47812   0.03720   0.78318   0.05802
C          C       0.96049   0.44540   0.76112   0.06086
C          C       0.41086   0.45703   0.68346  -0.13062
C          C       0.54186   0.95719   0.67146  -0.13076
C          C       0.04024   0.59069   0.69234  -0.12862
C          C       0.58312   0.54179   0.68015  -0.13070
C          C       0.45270   0.04266   0.69523  -0.12997
C          C       0.95593   0.41500   0.67394  -0.12872
C          C       0.37379   0.45472   0.68162  -0.15213
C          C       0.54443   0.92260   0.67258  -0.15003
C          C       0.07629   0.62657   0.68881  -0.15446
C          C       0.61913   0.54179   0.67737  -0.15352
C          C       0.45187   0.07821   0.69258  -0.15454
C          C       0.92079   0.37828   0.67112  -0.15260
C          C       0.36256   0.47199   0.78400   0.19374
C          C       0.52457   0.89285   0.77100   0.19592
C          C       0.10749   0.63361   0.77735   0.19687
C          C       0.62725   0.51948   0.77132   0.19945
C          C       0.47527   0.10931   0.78156   0.19664
C          C       0.88886   0.36991   0.75792   0.19757
C          C       0.38875   0.48924   0.89297  -0.17050
C          C       0.50318   0.89980   0.87164  -0.17298
C          C       0.10090   0.60346   0.87119  -0.17050
C          C       0.59751   0.49647   0.86678  -0.17419
C          C       0.49941   0.10324   0.87390  -0.17071
C          C       0.89343   0.39997   0.84724  -0.17234
C          C       0.42607   0.49188   0.89308  -0.12909
C          C       0.50049   0.93433   0.86859  -0.12249
C          C       0.06510   0.56741   0.87231  -0.11916
C          C       0.56136   0.49616   0.86693  -0.12144
C          C       0.50067   0.06795   0.87397  -0.12008
C          C       0.92846   0.43675   0.84817  -0.12273
C          C       0.47819   0.44259   0.76822   0.05742
C          C       0.55658   0.03812   0.75529   0.05310
C          C       0.96006   0.52144   0.76249   0.06112
C          C       0.51621   0.55664   0.76831   0.06125
C          C       0.44248   0.96277   0.76710   0.05427
C          C       0.03541   0.48250   0.75225   0.05735
C          C       0.45627   0.41172   0.86076  -0.11701
C          C       0.59006   0.03988   0.81868  -0.11635
C          C       0.95061   0.54056   0.86301  -0.12174
C          C       0.55017   0.59025   0.82152  -0.11941
C          C       0.41111   0.95582   0.85443  -0.11357
C          C       0.03669   0.45006   0.81288  -0.12005
C          C       0.45734   0.37620   0.85788  -0.17952
C          C       0.62750   0.07417   0.81364  -0.17415
C          C       0.91419   0.53992   0.86320  -0.17838
C          C       0.55426   0.62807   0.81938  -0.16879
C          C       0.37479   0.92002   0.85198  -0.18137
C          C       0.07094   0.44679   0.80962  -0.17105
C          C       0.47921   0.37010   0.75813   0.19672
C          C       0.63243   0.10845   0.74739   0.19664
C          C       0.88690   0.52146   0.75868   0.19865
C          C       0.52346   0.63348   0.76774   0.19780
C          C       0.36867   0.89054   0.75914   0.19659
C          C       0.10604   0.47707   0.74990   0.19950
C          C       0.49947   0.39991   0.66094  -0.17705
C          C       0.59972   0.10696   0.68065  -0.19388
C          C       0.89726   0.50459   0.65321  -0.17140
C          C       0.48984   0.60059   0.71140  -0.19222
C          C       0.39910   0.89774   0.66778  -0.18413
C          C       0.10509   0.50908   0.68587  -0.19237
C          C       0.49939   0.43575   0.66779  -0.11346
C          C       0.56262   0.07211   0.68326  -0.10913
C          C       0.93293   0.50398   0.65687  -0.11707
C          C       0.48663   0.56312   0.70999  -0.11324
C          C       0.43549   0.93319   0.67314  -0.11112
C          C       0.07012   0.51117   0.68487  -0.11059
C          C       0.31819   0.49501   0.82806   0.08476
C          C       0.50244   0.82585   0.81756   0.08585
C          C       0.16921   0.68404   0.85611   0.09363
C          C       0.68042   0.51405   0.85998   0.09471
C          C       0.48435   0.16985   0.86361   0.09438
C          C       0.82829   0.31764   0.83928   0.09777
C          C       0.28023   0.49441   0.82029  -0.02282
C          C       0.50406   0.78910   0.81634  -0.01917
C          C       0.20796   0.72049   0.84295  -0.02105
C          C       0.71756   0.51291   0.85148  -0.02410
C          C       0.48685   0.20870   0.85072  -0.02274
C          C       0.79024   0.28041   0.82696  -0.02023
C          C       0.24593   0.46494   0.75399   0.17361
C          C       0.53540   0.78505   0.76027   0.17091
C          C       0.21620   0.75184   0.75262   0.16585
C          C       0.74584   0.53078   0.74760   0.16702
C          C       0.46580   0.21788   0.75504   0.16645
C          C       0.78420   0.24853   0.74444   0.16549
C          C       0.21061   0.46741   0.75285   0.15975
C          C       0.53314   0.74741   0.76315   0.15828
C          C       0.25445   0.78651   0.75236   0.15829
C          C       0.78109   0.52823   0.74898   0.15545
C          C       0.46975   0.25623   0.75278   0.15605
C          C       0.74658   0.21307   0.74431   0.15992
C          C       0.20953   0.49990   0.81227  -0.06153
C          C       0.49954   0.71349   0.81846  -0.05989
C          C       0.28482   0.78979   0.83903  -0.07178
C          C       0.78857   0.50811   0.85369  -0.06611
C          C       0.49475   0.28577   0.84463  -0.06962
C          C       0.71411   0.21044   0.81790  -0.06884
C          C       0.24402   0.52928   0.87891  -0.13854
C          C       0.46841   0.71791   0.87509  -0.14074
C          C       0.27627   0.75805   0.92873  -0.13568
C          C       0.76000   0.49032   0.95748  -0.14100
C          C       0.51586   0.27630   0.94005  -0.13575
C          C       0.72043   0.24285   0.89916  -0.13748
C          C       0.27808   0.52620   0.88320  -0.15327
C          C       0.47102   0.75480   0.87460  -0.14945
C          C       0.23867   0.72468   0.93110  -0.15374
C          C       0.72574   0.49310   0.95632  -0.14852
C          C       0.51156   0.23866   0.94311  -0.15293
C          C       0.75786   0.27636   0.90589  -0.15209
C          C       0.17347   0.50224   0.80680   0.08966
C          C       0.49749   0.67532   0.81690   0.09000
C          C       0.32315   0.82594   0.83865   0.10301
C          C       0.82535   0.50703   0.85479   0.09942
C          C       0.49660   0.32396   0.84394   0.10221
C          C       0.67573   0.17447   0.81332   0.09866
N          N       0.33625   0.47884   0.26919  -0.26746
N          N       0.52358   0.85371   0.25816  -0.26572
N          N       0.14546   0.66738   0.25218  -0.27439
N          N       0.67489   0.52933   0.25648  -0.27412
N          N       0.47488   0.14317   0.25675  -0.27243
N          N       0.85595   0.32921   0.24926  -0.27511
N          N       0.47844   0.33164   0.24683  -0.29571
N          N       0.66628   0.14513   0.23912  -0.29073
N          N       0.85962   0.52522   0.24515  -0.29415
N          N       0.51794   0.66425   0.24778  -0.28824
N          N       0.33230   0.85369   0.24753  -0.29216
N          N       0.15194   0.48298   0.24643  -0.28674
N          N       0.32520   0.46928   0.77039  -0.26267
N          N       0.52885   0.85905   0.76247  -0.26506
N          N       0.14334   0.66992   0.76065  -0.27831
N          N       0.66393   0.52062   0.75791  -0.27652
N          N       0.47422   0.14487   0.76622  -0.27727
N          N       0.85409   0.33265   0.74324  -0.27887
N          N       0.47943   0.33369   0.75054  -0.29282
N          N       0.67051   0.14330   0.74733  -0.29177
N          N       0.85007   0.52071   0.75375  -0.28941
N          N       0.52726   0.67155   0.77263  -0.29093
N          N       0.33145   0.85458   0.75292  -0.28872
N          N       0.14083   0.47386   0.75345  -0.29232
O          O       0.26720   0.46223   0.13185  -0.40532
O          O       0.53890   0.79978   0.12019  -0.40249
O          O       0.19209   0.74446   0.14000  -0.40418
O          O       0.75581   0.56633   0.16635  -0.40197
O          O       0.44281   0.18936   0.14940  -0.40334
O          O       0.80573   0.25526   0.12583  -0.40563
O          O       0.19981   0.46525   0.13126  -0.43229
O          O       0.53471   0.72894   0.12489  -0.43417
O          O       0.26358   0.81065   0.14010  -0.43060
O          O       0.82115   0.55916   0.16023  -0.42879
O          O       0.44924   0.26146   0.14689  -0.42869
O          O       0.73424   0.18955   0.12677  -0.43101
O          O       0.24561   0.43418   0.68880  -0.39720
O          O       0.56768   0.81600   0.70060  -0.39663
O          O       0.18818   0.75054   0.66733  -0.40306
O          O       0.74113   0.55175   0.64658  -0.40682
O          O       0.44056   0.19051   0.66622  -0.40457
O          O       0.81391   0.25017   0.66705  -0.40572
O          O       0.17889   0.43781   0.68860  -0.42798
O          O       0.56412   0.74563   0.70744  -0.42855
O          O       0.26006   0.81601   0.66636  -0.42929
O          O       0.80710   0.54662   0.64700  -0.42978
O          O       0.44788   0.26252   0.66017  -0.42999
O          O       0.74338   0.18269   0.66903  -0.42746

