data_crystal

_audit_creation_method 'AiiDA-DDEC plugin'

_cell_length_a        21.40484
_cell_length_b        21.39077
_cell_length_c         8.10017

_cell_angle_alpha     105.24399
_cell_angle_beta     107.97735
_cell_angle_gamma     120.10246

_symmetry_space_group_name_Hall 'P 1'
_symmetry_space_group_name_H-M  'P 1'

loop_
_symmetry_equiv_pos_as_xyz
 'x,y,z'

loop_
_atom_site_label
_atom_site_type_symbol
_atom_site_fract_x
_atom_site_fract_y
_atom_site_fract_z
_atom_site_charge
H          H       0.36026   0.41100   0.20664   0.12710
H          H       0.59653   0.96061   0.30488   0.12912
H          H       0.06753   0.64481   0.29717   0.12613
H          H       0.64331   0.58816   0.28542   0.12723
H          H       0.41566   0.04513   0.21098   0.12811
H          H       0.94413   0.36304   0.22098   0.12575
H          H       0.43905   0.35841   0.20688   0.13551
H          H       0.64874   0.09185   0.30369   0.12835
H          H       0.93469   0.56535   0.29119   0.13530
H          H       0.56442   0.64058   0.28462   0.13409
H          H       0.36366   0.91431   0.21309   0.12858
H          H       0.07685   0.44246   0.22655   0.13593
H          H       0.35529   0.41128   0.71074   0.12606
H          H       0.58706   0.95755   0.80274   0.12737
H          H       0.05850   0.63989   0.79422   0.12498
H          H       0.63636   0.58608   0.77917   0.12686
H          H       0.40631   0.04221   0.70847   0.12883
H          H       0.93612   0.35867   0.72060   0.12637
H          H       0.43380   0.35839   0.71084   0.13431
H          H       0.63908   0.08857   0.80042   0.12890
H          H       0.92605   0.56060   0.78872   0.13588
H          H       0.55815   0.63929   0.78115   0.13179
H          H       0.35378   0.91069   0.70915   0.12807
H          H       0.06842   0.43789   0.72483   0.13570
C          C       0.60019   0.27448   0.25409  -0.12251
C          C       0.73258   0.32653   0.25491  -0.12618
C          C       0.68153   0.40752   0.25731  -0.12123
C          C       0.40951   0.72977   0.25488  -0.12400
C          C       0.27788   0.67926   0.25702  -0.12807
C          C       0.32653   0.59616   0.24832  -0.11858
C          C       0.66221   0.26740   0.25558   0.16631
C          C       0.74101   0.39661   0.25877   0.17808
C          C       0.61148   0.34485   0.25361   0.17603
C          C       0.34856   0.73806   0.25678   0.16687
C          C       0.26829   0.60846   0.25044   0.17767
C          C       0.39685   0.65842   0.25186   0.17557
C          C       0.53901   0.20160   0.25286  -0.08777
C          C       0.80360   0.33686   0.24919  -0.08581
C          C       0.66876   0.46727   0.25258  -0.07948
C          C       0.47108   0.80261   0.25672  -0.08233
C          C       0.20734   0.66969   0.26427  -0.09023
C          C       0.33737   0.53483   0.24805  -0.08018
C          C       0.56745   0.15548   0.25454   0.16212
C          C       0.85130   0.41231   0.25326   0.15587
C          C       0.59323   0.43809   0.24836   0.16611
C          C       0.44426   0.85013   0.25985   0.15875
C          C       0.15919   0.59424   0.25974   0.15709
C          C       0.41204   0.56265   0.24898   0.16225
C          C       0.72290   0.53956   0.24909   0.24961
C          C       0.46800   0.18516   0.26188   0.24616
C          C       0.81932   0.28006   0.24338   0.24548
C          C       0.28285   0.46273   0.25172   0.25267
C          C       0.54026   0.81690   0.24124   0.24775
C          C       0.19169   0.72655   0.27128   0.24423
C          C       0.45683   0.53009   0.24665   0.02024
C          C       0.47602   0.92747   0.25874   0.02100
C          C       0.08173   0.54908   0.25988   0.01751
C          C       0.54697   0.46920   0.24609   0.02252
C          C       0.53631   0.07850   0.25725   0.02185
C          C       0.92910   0.45810   0.25454   0.01820
C          C       0.42219   0.45011   0.22464  -0.09973
C          C       0.55662   0.97863   0.28369  -0.10730
C          C       0.04050   0.58295   0.27861  -0.10822
C          C       0.58133   0.54896   0.26693  -0.10169
C          C       0.45578   0.02738   0.23275  -0.10970
C          C       0.97066   0.42448   0.23718  -0.10615
C          C       0.46661   0.42021   0.22447  -0.10407
C          C       0.58631   0.05294   0.28320  -0.09883
C          C       0.96534   0.53811   0.27532  -0.10444
C          C       0.53692   0.57881   0.26703  -0.10184
C          C       0.42609   0.95313   0.23339  -0.09856
C          C       0.04575   0.46932   0.24046  -0.10637
C          C       0.59186   0.27182   0.75425  -0.12320
C          C       0.72419   0.32307   0.75500  -0.12719
C          C       0.67393   0.40466   0.75734  -0.12014
C          C       0.40130   0.72746   0.75514  -0.12614
C          C       0.26971   0.67607   0.75782  -0.12921
C          C       0.31907   0.59357   0.74803  -0.12125
C          C       0.65362   0.26429   0.75557   0.16725
C          C       0.73301   0.39322   0.75857   0.17807
C          C       0.60363   0.34241   0.75379   0.17767
C          C       0.34007   0.73528   0.75715   0.16830
C          C       0.26030   0.60513   0.74985   0.18079
C          C       0.38924   0.65641   0.75226   0.17780
C          C       0.53062   0.19919   0.75365  -0.08540
C          C       0.79501   0.33286   0.74912  -0.09012
C          C       0.66207   0.46495   0.75263  -0.07998
C          C       0.46251   0.80027   0.75638  -0.08868
C          C       0.19904   0.66610   0.76516  -0.08619
C          C       0.33083   0.53281   0.74792  -0.07898
C          C       0.55840   0.15253   0.75396   0.15934
C          C       0.84294   0.40815   0.75274   0.15756
C          C       0.58671   0.43655   0.74848   0.16378
C          C       0.43498   0.84719   0.75826   0.16289
C          C       0.15072   0.59011   0.75840   0.15830
C          C       0.40578   0.56151   0.74933   0.16534
C          C       0.71673   0.53674   0.74813   0.25035
C          C       0.46068   0.18396   0.76654   0.24910
C          C       0.81087   0.27620   0.74409   0.24633
C          C       0.27606   0.45994   0.74883   0.24981
C          C       0.53203   0.81558   0.74118   0.24928
C          C       0.18428   0.72373   0.77418   0.24657
C          C       0.45127   0.52965   0.74772   0.01802
C          C       0.46649   0.92438   0.75663   0.02125
C          C       0.07333   0.54464   0.75887   0.01707
C          C       0.54112   0.46841   0.74656   0.02113
C          C       0.52689   0.07542   0.75578   0.02157
C          C       0.92083   0.45365   0.75433   0.01817
C          C       0.41699   0.45004   0.72763  -0.09766
C          C       0.54713   0.97554   0.78163  -0.10701
C          C       0.03195   0.57835   0.77733  -0.10495
C          C       0.57506   0.54770   0.76456  -0.10086
C          C       0.44626   0.02426   0.73062  -0.10866
C          C       0.96254   0.42017   0.73724  -0.10797
C          C       0.46123   0.42000   0.72736  -0.10249
C          C       0.57681   0.04978   0.78096  -0.09978
C          C       0.95688   0.53348   0.77408  -0.10801
C          C       0.53090   0.57786   0.76562  -0.09933
C          C       0.41643   0.94987   0.73069  -0.09719
C          C       0.03752   0.46494   0.73977  -0.10553
N          N       0.76847   0.59803   0.24172  -0.33114
N          N       0.41115   0.17484   0.27592  -0.32031
N          N       0.82954   0.23091   0.23945  -0.31981
N          N       0.23734   0.40476   0.26071  -0.33314
N          N       0.59509   0.82483   0.22059  -0.32229
N          N       0.18091   0.77539   0.27660  -0.32065
N          N       0.76242   0.59420   0.73798  -0.33126
N          N       0.40481   0.17489   0.78375  -0.32150
N          N       0.82162   0.22741   0.74014  -0.32227
N          N       0.22996   0.40096   0.75401  -0.33133
N          N       0.58740   0.82508   0.72074  -0.32296
N          N       0.17534   0.77385   0.78070  -0.32082
O          O       0.64278   0.19609   0.25687  -0.12532
O          O       0.81279   0.44841   0.25882  -0.12104
O          O       0.55851   0.36331   0.24855  -0.12075
O          O       0.36934   0.81032   0.25963  -0.12434
O          O       0.19665   0.55712   0.25123  -0.12088
O          O       0.44808   0.63813   0.25182  -0.11855
O          O       0.63360   0.19267   0.75558  -0.12532
O          O       0.80478   0.44467   0.75819  -0.12208
O          O       0.55119   0.36159   0.74835  -0.12020
O          O       0.36025   0.80725   0.75867  -0.12391
O          O       0.18844   0.55328   0.74960  -0.12304
O          O       0.44101   0.63685   0.75187  -0.11989

