data_crystal

_audit_creation_method 'AiiDA-DDEC plugin'

_cell_length_a        21.23991
_cell_length_b        21.27685
_cell_length_c         7.99564

_cell_angle_alpha     73.48249
_cell_angle_beta     122.78961
_cell_angle_gamma     120.12061

_symmetry_space_group_name_Hall 'P 1'
_symmetry_space_group_name_H-M  'P 1'

loop_
_symmetry_equiv_pos_as_xyz
 'x,y,z'

loop_
_atom_site_label
_atom_site_type_symbol
_atom_site_fract_x
_atom_site_fract_y
_atom_site_fract_z
_atom_site_charge
H          H       0.72209   0.46823   0.25908   0.12279
H          H       0.52813   0.25331   0.22866   0.12752
H          H       0.75047   0.28038   0.26567   0.12641
H          H       0.27970   0.53299   0.24891   0.12342
H          H       0.47172   0.74761   0.26413   0.12727
H          H       0.25058   0.72156   0.23176   0.12791
H          H       0.62921   0.61009   0.25154   0.17016
H          H       0.38837   0.01835   0.23874   0.16658
H          H       0.98492   0.37260   0.26503   0.17252
H          H       0.37120   0.39008   0.24949   0.17000
H          H       0.61127   0.98343   0.24730   0.16828
H          H       0.01782   0.62950   0.24236   0.17287
H          H       0.72105   0.46727   0.75655   0.12292
H          H       0.52757   0.25246   0.73190   0.12684
H          H       0.74886   0.27899   0.76459   0.12642
H          H       0.27924   0.53234   0.74914   0.12320
H          H       0.47083   0.74726   0.76399   0.12527
H          H       0.25011   0.72052   0.73509   0.12778
H          H       0.62898   0.60975   0.75231   0.17086
H          H       0.38758   0.01740   0.74158   0.16718
H          H       0.98372   0.37141   0.76291   0.17291
H          H       0.37091   0.38998   0.74991   0.16941
H          H       0.60994   0.98223   0.74772   0.16700
H          H       0.01722   0.62824   0.74501   0.17341
C          C       0.69871   0.40974   0.25636  -0.14617
C          C       0.58902   0.28872   0.24065  -0.13830
C          C       0.71378   0.30342   0.25945  -0.13093
C          C       0.30283   0.59154   0.24797  -0.14879
C          C       0.41141   0.71230   0.25562  -0.13658
C          C       0.28732   0.69834   0.23894  -0.13453
C          C       0.62136   0.36446   0.24944   0.03211
C          C       0.63542   0.25807   0.24699   0.03557
C          C       0.74476   0.37931   0.25972   0.03372
C          C       0.37948   0.63642   0.25117   0.03039
C          C       0.36518   0.74339   0.24817   0.03815
C          C       0.25692   0.62242   0.24320   0.03509
C          C       0.57556   0.39704   0.24924   0.16183
C          C       0.60177   0.17984   0.24068   0.16388
C          C       0.82331   0.42511   0.25963   0.16444
C          C       0.42492   0.60345   0.25145   0.16323
C          C       0.39847   0.82177   0.24979   0.16299
C          C       0.17889   0.57683   0.24572   0.16516
C          C       0.55945   0.49256   0.25083   0.18879
C          C       0.50631   0.06746   0.23956   0.18320
C          C       0.93533   0.44186   0.25829   0.18214
C          C       0.44098   0.50772   0.25059   0.18946
C          C       0.49343   0.93416   0.24729   0.18902
C          C       0.06713   0.56021   0.24835   0.18068
C          C       0.48901   0.42997   0.25116  -0.01179
C          C       0.56970   0.06021   0.24225  -0.00506
C          C       0.94218   0.51220   0.25319  -0.01402
C          C       0.51139   0.57026   0.25003  -0.01340
C          C       0.43007   0.94150   0.24457  -0.01306
C          C       0.06050   0.48989   0.25467  -0.01128
C          C       0.50110   0.36889   0.25137  -0.11702
C          C       0.63030   0.13369   0.24041  -0.10636
C          C       0.86909   0.49992   0.25454  -0.11272
C          C       0.49929   0.63140   0.24918  -0.11622
C          C       0.36977   0.86811   0.24829  -0.10686
C          C       0.13349   0.50206   0.25310  -0.11253
C          C       0.57406   0.56371   0.25081  -0.20690
C          C       0.43537   0.01031   0.24043  -0.20339
C          C       0.99237   0.42743   0.25980  -0.20768
C          C       0.42637   0.43654   0.25056  -0.20792
C          C       0.56428   0.99138   0.24595  -0.20938
C          C       0.01026   0.57464   0.24769  -0.20516
C          C       0.44943   0.29519   0.26616   0.25149
C          C       0.70348   0.15365   0.23622   0.25970
C          C       0.85033   0.55413   0.25833   0.25564
C          C       0.55110   0.70494   0.23385   0.25054
C          C       0.29698   0.84849   0.25396   0.25707
C          C       0.15185   0.44757   0.24933   0.25409
C          C       0.69760   0.40877   0.75496  -0.14680
C          C       0.58814   0.28790   0.74194  -0.13608
C          C       0.71252   0.30233   0.75887  -0.13021
C          C       0.30235   0.59087   0.74853  -0.14853
C          C       0.41064   0.71176   0.75587  -0.13506
C          C       0.28669   0.69733   0.74128  -0.13264
C          C       0.62048   0.36371   0.74941   0.03157
C          C       0.63433   0.25716   0.74755   0.03312
C          C       0.74357   0.37822   0.75858   0.03490
C          C       0.37895   0.63593   0.75137   0.03159
C          C       0.36431   0.74253   0.74944   0.03721
C          C       0.25642   0.62145   0.74504   0.03415
C          C       0.57483   0.39652   0.74893   0.16291
C          C       0.60067   0.17888   0.74173   0.16439
C          C       0.82215   0.42393   0.75864   0.16141
C          C       0.42469   0.60319   0.75198   0.16102
C          C       0.39736   0.82085   0.75122   0.16636
C          C       0.17843   0.57572   0.74801   0.16456
C          C       0.55912   0.49222   0.75121   0.18920
C          C       0.50524   0.06645   0.74097   0.18252
C          C       0.93428   0.44053   0.75797   0.18424
C          C       0.44062   0.50752   0.75056   0.18964
C          C       0.49212   0.93321   0.74786   0.18540
C          C       0.06655   0.55906   0.75009   0.18183
C          C       0.48846   0.42974   0.75060  -0.01428
C          C       0.56839   0.05917   0.74257  -0.00525
C          C       0.94129   0.51089   0.75346  -0.01261
C          C       0.51113   0.57002   0.75046  -0.01375
C          C       0.42891   0.94055   0.74588  -0.00957
C          C       0.05962   0.48870   0.75492  -0.00887
C          C       0.50010   0.36856   0.74956  -0.11920
C          C       0.62891   0.13266   0.74036  -0.10773
C          C       0.86808   0.49872   0.75396  -0.11371
C          C       0.49923   0.63119   0.75043  -0.11584
C          C       0.36876   0.86717   0.75023  -0.10608
C          C       0.13280   0.50091   0.75406  -0.11505
C          C       0.57378   0.56339   0.75134  -0.20829
C          C       0.43436   0.00936   0.74225  -0.20413
C          C       0.99129   0.42618   0.75895  -0.20866
C          C       0.42595   0.43638   0.75033  -0.20593
C          C       0.56294   0.99032   0.74606  -0.20688
C          C       0.00960   0.57342   0.74927  -0.20743
C          C       0.44735   0.29492   0.76073   0.25163
C          C       0.70162   0.15236   0.73439   0.25748
C          C       0.84899   0.55287   0.75662   0.25733
C          C       0.55157   0.70478   0.73725   0.24999
C          C       0.29584   0.84732   0.75541   0.25672
C          C       0.15208   0.44678   0.75209   0.25341
N          N       0.40734   0.23435   0.28518  -0.32626
N          N       0.76290   0.16945   0.22713  -0.34226
N          N       0.83584   0.59934   0.26551  -0.33254
N          N       0.59347   0.76558   0.21423  -0.32555
N          N       0.23786   0.83280   0.26436  -0.33856
N          N       0.16579   0.40201   0.24175  -0.33337
N          N       0.40397   0.23422   0.77641  -0.32491
N          N       0.76072   0.16813   0.72378  -0.34028
N          N       0.83372   0.59780   0.76213  -0.33443
N          N       0.59471   0.76542   0.72027  -0.32451
N          N       0.23627   0.83120   0.76432  -0.34029
N          N       0.16767   0.40199   0.74721  -0.33126
O          O       0.61134   0.47192   0.24950  -0.13139
O          O       0.52644   0.14013   0.23878  -0.12947
O          O       0.86318   0.38964   0.26214  -0.13115
O          O       0.38907   0.52854   0.25143  -0.13264
O          O       0.47362   0.86139   0.25035  -0.13128
O          O       0.13889   0.61237   0.24229  -0.13199
O          O       0.61102   0.47142   0.75043  -0.13101
O          O       0.52548   0.13912   0.74059  -0.12920
O          O       0.86188   0.38835   0.76092  -0.13113
O          O       0.38872   0.52830   0.75137  -0.13199
O          O       0.47227   0.86044   0.75090  -0.13262
O          O       0.13867   0.61127   0.74578  -0.13319

