data_crystal

_audit_creation_method 'AiiDA-DDEC plugin'

_cell_length_a        53.09810
_cell_length_b        52.63128
_cell_length_c        20.49116

_cell_angle_alpha     90.39241
_cell_angle_beta     89.78444
_cell_angle_gamma     120.18267

_symmetry_space_group_name_Hall 'P 1'
_symmetry_space_group_name_H-M  'P 1'

loop_
_symmetry_equiv_pos_as_xyz
 'x,y,z'

loop_
_atom_site_label
_atom_site_type_symbol
_atom_site_fract_x
_atom_site_fract_y
_atom_site_fract_z
_atom_site_charge
H          H       0.44263   0.65872   0.55037   0.11247
H          H       0.33450   0.77643   0.57625   0.11272
H          H       0.21936   0.55475   0.57608   0.11299
H          H       0.56061   0.33650   0.57600   0.11484
H          H       0.66586   0.22457   0.58053   0.11398
H          H       0.77468   0.44178   0.59273   0.11324
H          H       0.56361   0.33613   0.40178   0.11405
H          H       0.65729   0.21322   0.45498   0.11227
H          H       0.78997   0.44347   0.46515   0.11169
H          H       0.43927   0.66491   0.41545   0.11282
H          H       0.33770   0.78132   0.44323   0.11266
H          H       0.21720   0.55356   0.43150   0.11336
H          H       0.46851   0.64002   0.61807   0.10582
H          H       0.35607   0.82242   0.64239   0.10665
H          H       0.17467   0.53051   0.64440   0.10566
H          H       0.53442   0.35626   0.64070   0.10614
H          H       0.64519   0.17818   0.64412   0.10730
H          H       0.82113   0.46718   0.65521   0.10550
H          H       0.53958   0.35692   0.33393   0.10585
H          H       0.63660   0.16751   0.38843   0.10541
H          H       0.83541   0.46816   0.39987   0.10780
H          H       0.46539   0.64477   0.35164   0.10583
H          H       0.35760   0.82696   0.37786   0.10714
H          H       0.17141   0.52941   0.36679   0.10692
H          H       0.38669   0.56475   0.67116   0.11635
H          H       0.43922   0.82728   0.63793   0.11719
H          H       0.17260   0.61106   0.65255   0.11598
H          H       0.60945   0.44297   0.63059   0.11647
H          H       0.56115   0.17144   0.64314   0.11700
H          H       0.83070   0.39113   0.63549   0.11587
H          H       0.61223   0.44400   0.36487   0.11720
H          H       0.56622   0.18007   0.32806   0.11558
H          H       0.81879   0.38448   0.32617   0.11616
H          H       0.39167   0.55766   0.36951   0.11494
H          H       0.43329   0.82076   0.33133   0.11547
H          H       0.17170   0.61108   0.35734   0.11642
H          H       0.36052   0.58422   0.60523   0.11334
H          H       0.41754   0.78098   0.57167   0.11616
H          H       0.21794   0.63561   0.58518   0.11467
H          H       0.63575   0.42312   0.56578   0.11341
H          H       0.58169   0.21759   0.57703   0.11681
H          H       0.78491   0.36623   0.56932   0.11494
H          H       0.63632   0.42309   0.43338   0.11408
H          H       0.58774   0.22681   0.39259   0.11381
H          H       0.77269   0.35953   0.39095   0.11322
H          H       0.36561   0.57784   0.43519   0.11625
H          H       0.41308   0.77450   0.39617   0.11371
H          H       0.21807   0.63551   0.42159   0.11466
H          H       0.46855   0.60546   0.69268   0.06672
H          H       0.39588   0.86249   0.69603   0.06623
H          H       0.13650   0.53181   0.70665   0.06810
H          H       0.53264   0.39681   0.69333   0.06939
H          H       0.60490   0.13635   0.69447   0.06875
H          H       0.86320   0.46859   0.70159   0.06704
H          H       0.53852   0.39735   0.28476   0.06639
H          H       0.60234   0.13408   0.31047   0.06696
H          H       0.86764   0.46687   0.31923   0.06557
H          H       0.46756   0.60427   0.30193   0.06783
H          H       0.39440   0.86357   0.30824   0.06671
H          H       0.13408   0.53084   0.30624   0.06641
H          H       0.41031   0.52768   0.80795   0.11991
H          H       0.47555   0.88252   0.79529   0.12182
H          H       0.11743   0.59308   0.80475   0.12231
H          H       0.59178   0.47312   0.80219   0.12296
H          H       0.53136   0.12082   0.81178   0.12141
H          H       0.88265   0.40785   0.80042   0.12374
H          H       0.59681   0.48247   0.20305   0.12077
H          H       0.52599   0.11748   0.19709   0.12207
H          H       0.88191   0.40546   0.19883   0.12212
H          H       0.40960   0.52526   0.19790   0.12168
H          H       0.47048   0.87942   0.18969   0.12017
H          H       0.11526   0.59175   0.20600   0.12250
H          H       0.48810   0.57628   0.69367   0.11044
H          H       0.42589   0.91299   0.69060   0.11410
H          H       0.08568   0.51234   0.69716   0.11381
H          H       0.51493   0.43184   0.68283   0.11534
H          H       0.56947   0.08440   0.68356   0.11435
H          H       0.91280   0.48857   0.69583   0.11314
H          H       0.51448   0.42397   0.29337   0.11334
H          H       0.57152   0.08470   0.30965   0.11272
H          H       0.91414   0.48488   0.31195   0.11224
H          H       0.48722   0.57253   0.31346   0.11422
H          H       0.42398   0.91153   0.30349   0.11247
H          H       0.08393   0.51059   0.30944   0.11336
H          H       0.51268   0.55579   0.75940   0.11404
H          H       0.44725   0.95801   0.75957   0.11374
H          H       0.04025   0.48987   0.76260   0.11145
H          H       0.49212   0.45346   0.75297   0.11108
H          H       0.54797   0.03914   0.74965   0.11349
H          H       0.95749   0.51233   0.76404   0.11355
H          H       0.49074   0.44485   0.22551   0.11475
H          H       0.54967   0.03932   0.24199   0.11220
H          H       0.95844   0.50866   0.24333   0.11358
H          H       0.51209   0.55298   0.24370   0.11178
H          H       0.44575   0.95687   0.23755   0.11063
H          H       0.04018   0.48720   0.23875   0.11387
H          H       0.43507   0.50710   0.87421   0.11507
H          H       0.49607   0.92718   0.86656   0.11554
H          H       0.07229   0.57011   0.87270   0.11520
H          H       0.56890   0.49451   0.87298   0.11497
H          H       0.51019   0.07559   0.87918   0.11445
H          H       0.92736   0.43179   0.86950   0.11492
H          H       0.57265   0.50287   0.13372   0.11570
H          H       0.50480   0.07232   0.12720   0.11492
H          H       0.92664   0.42953   0.12939   0.11535
H          H       0.43463   0.50605   0.12716   0.11501
H          H       0.49231   0.92502   0.12322   0.11512
H          H       0.07160   0.56814   0.13409   0.11492
H          H       0.36662   0.64364   0.62179   0.12143
H          H       0.35259   0.72188   0.61909   0.12170
H          H       0.27596   0.62994   0.62278   0.12155
H          H       0.63145   0.35668   0.61882   0.12206
H          H       0.64620   0.27810   0.62238   0.12195
H          H       0.72224   0.37195   0.62396   0.12205
H          H       0.63347   0.35582   0.37585   0.12144
H          H       0.64538   0.27712   0.37950   0.12058
H          H       0.72476   0.36680   0.38151   0.11992
H          H       0.36737   0.64269   0.37886   0.12158
H          H       0.35308   0.72007   0.37632   0.12098
H          H       0.27410   0.62773   0.37993   0.12133
H          H       0.47360   0.54764   0.94175   0.11346
H          H       0.45491   0.92547   0.93551   0.11395
H          H       0.07282   0.53223   0.94140   0.11313
H          H       0.53124   0.45770   0.93745   0.11343
H          H       0.54625   0.07350   0.94152   0.11397
H          H       0.92516   0.46848   0.94237   0.11343
H          H       0.53247   0.45854   0.05698   0.11383
H          H       0.54514   0.07295   0.06074   0.11361
H          H       0.92511   0.46725   0.06156   0.11336
H          H       0.47322   0.54692   0.06128   0.11353
H          H       0.45366   0.92486   0.05495   0.11409
H          H       0.07290   0.53130   0.06082   0.11338
H          H       0.50290   0.50177   0.22398   0.11719
H          H       0.49728   0.99814   0.22333   0.11329
H          H       0.99900   0.49809   0.22659   0.11313
H          H       0.50253   0.50317   0.77410   0.11507
H          H       0.50037  -0.00004   0.77310   0.11515
H          H       0.99921   0.50189   0.77650   0.11409
H          H       0.33196   0.66522   0.61641   0.10279
H          H       0.66582   0.33492   0.61741   0.10294
H          H       0.66816   0.33394   0.38346   0.10338
H          H       0.33110   0.66287   0.38250   0.10352
C          C       0.39978   0.62280   0.57354   0.07695
C          C       0.37460   0.77565   0.56922   0.08041
C          C       0.22167   0.59682   0.57588   0.08072
C          C       0.59991   0.37843   0.56679   0.08000
C          C       0.62500   0.22385   0.57375   0.08210
C          C       0.77679   0.40236   0.57660   0.08089
C          C       0.60147   0.37827   0.42245   0.08187
C          C       0.62381   0.22308   0.42873   0.07929
C          C       0.77810   0.39978   0.43254   0.07674
C          C       0.40063   0.62266   0.42932   0.08030
C          C       0.37411   0.77482   0.42457   0.07985
C          C       0.22061   0.59616   0.43123   0.08107
C          C       0.43032   0.63825   0.57696  -0.13859
C          C       0.35743   0.78755   0.58946  -0.14541
C          C       0.20915   0.56710   0.59275  -0.14365
C          C       0.57124   0.35980   0.58785  -0.14369
C          C       0.64285   0.21274   0.59335  -0.14806
C          C       0.78705   0.43077   0.60155  -0.14746
C          C       0.57418   0.35974   0.39402  -0.14405
C          C       0.63738   0.20606   0.42732  -0.14036
C          C       0.79623   0.43047   0.43501  -0.13884
C          C       0.42885   0.64142   0.40567  -0.14721
C          C       0.35873   0.78998   0.41924  -0.14217
C          C       0.20719   0.56615   0.41576  -0.14348
C          C       0.44482   0.62770   0.61485  -0.12952
C          C       0.36955   0.81337   0.62650  -0.12985
C          C       0.18401   0.55352   0.63112  -0.12819
C          C       0.55659   0.37097   0.62404  -0.12704
C          C       0.63127   0.18679   0.62918  -0.12916
C          C       0.81306   0.44496   0.63675  -0.13038
C          C       0.56078   0.37145   0.35584  -0.12827
C          C       0.62575   0.18040   0.38990  -0.12757
C          C       0.82176   0.44432   0.39831  -0.12924
C          C       0.44346   0.63012   0.36979  -0.12830
C          C       0.36994   0.81564   0.38247  -0.12953
C          C       0.18147   0.55262   0.37944  -0.12866
C          C       0.42921   0.60106   0.64889   0.04952
C          C       0.39911   0.82792   0.64417   0.04770
C          C       0.17057   0.56923   0.65293   0.04854
C          C       0.57038   0.40102   0.64008   0.04736
C          C       0.60170   0.17170   0.64713   0.04699
C          C       0.82893   0.43072   0.64941   0.04966
C          C       0.57441   0.40192   0.34499   0.04730
C          C       0.59987   0.17063   0.35429   0.04974
C          C       0.83023   0.42783   0.35915   0.05068
C          C       0.42999   0.59987   0.35603   0.04764
C          C       0.39704   0.82708   0.35086   0.04943
C          C       0.16838   0.56864   0.35818   0.04726
C          C       0.39859   0.58539   0.64491  -0.10473
C          C       0.41637   0.81597   0.62390  -0.10183
C          C       0.18307   0.59901   0.63556  -0.10288
C          C       0.59903   0.41974   0.61814  -0.10295
C          C       0.58390   0.18313   0.62825  -0.10104
C          C       0.81842   0.40207   0.62496  -0.09999
C          C       0.60180   0.42048   0.37367  -0.10159
C          C       0.58620   0.18765   0.35579  -0.10501
C          C       0.81219   0.39705   0.35689  -0.10706
C          C       0.40178   0.58104   0.38026  -0.09875
C          C       0.41245   0.81188   0.35624  -0.10408
C          C       0.18178   0.59872   0.37418  -0.10134
C          C       0.38418   0.59631   0.60826  -0.14274
C          C       0.40422   0.79026   0.58704  -0.14013
C          C       0.20825   0.61254   0.59798  -0.14220
C          C       0.61353   0.40857   0.58213  -0.14166
C          C       0.59542   0.20877   0.59189  -0.14050
C          C       0.79290   0.38828   0.58863  -0.13633
C          C       0.61504   0.40876   0.41176  -0.14158
C          C       0.59825   0.21360   0.39181  -0.14463
C          C       0.78649   0.38334   0.39271  -0.14369
C          C       0.38743   0.59233   0.41651  -0.13870
C          C       0.40106   0.78614   0.39220  -0.14253
C          C       0.20753   0.61219   0.40987  -0.14317
C          C       0.44497   0.59028   0.68736   0.06993
C          C       0.41108   0.85473   0.68353   0.07052
C          C       0.14423   0.55480   0.69313   0.07025
C          C       0.55548   0.41241   0.68054   0.06933
C          C       0.59007   0.14490   0.68584   0.06908
C          C       0.85541   0.44546   0.68876   0.06824
C          C       0.56016   0.41354   0.30371   0.07023
C          C       0.58793   0.14334   0.31656   0.06930
C          C       0.85722   0.44279   0.32172   0.06905
C          C       0.44491   0.58848   0.31569   0.06836
C          C       0.40858   0.85398   0.31252   0.06857
C          C       0.14186   0.55400   0.31871   0.07071
C          C       0.43293   0.53414   0.79879  -0.16248
C          C       0.46910   0.89896   0.78900  -0.16522
C          C       0.10063   0.57027   0.79717  -0.16626
C          C       0.56974   0.46852   0.79276  -0.16906
C          C       0.53541   0.10304   0.79965  -0.16759
C          C       0.89893   0.43089   0.79385  -0.16691
C          C       0.57349   0.47403   0.20667  -0.16394
C          C       0.53155   0.10049   0.20506  -0.16433
C          C       0.89863   0.42824   0.20714  -0.16172
C          C       0.43223   0.53163   0.20663  -0.16745
C          C       0.46472   0.89625   0.19881  -0.16039
C          C       0.09899   0.56867   0.21170  -0.16659
C          C       0.44773   0.55436   0.74843   0.20293
C          C       0.44855   0.89413   0.74017   0.20340
C          C       0.10520   0.55404   0.74835   0.20188
C          C       0.55450   0.45008   0.73966   0.20379
C          C       0.55297   0.10636   0.74506   0.20490
C          C       0.89411   0.44685   0.74548   0.20342
C          C       0.55726   0.45119   0.25114   0.20162
C          C       0.55115   0.10484   0.25579   0.20325
C          C       0.89422   0.44374   0.25793   0.20130
C          C       0.44711   0.55122   0.25839   0.20451
C          C       0.44480   0.89162   0.24932   0.20101
C          C       0.10341   0.55260   0.26051   0.20384
C          C       0.47663   0.56172   0.73423  -0.17954
C          C       0.44097   0.91588   0.72962  -0.18420
C          C       0.08296   0.52489   0.73619  -0.18323
C          C       0.52639   0.44498   0.72544  -0.18562
C          C       0.55707   0.08277   0.72730  -0.18546
C          C       0.91572   0.47634   0.73483  -0.18404
C          C       0.52721   0.44086   0.25764  -0.18296
C          C       0.55734   0.08228   0.26899  -0.18142
C          C       0.91645   0.47282   0.27124  -0.18049
C          C       0.47598   0.55845   0.27178  -0.18601
C          C       0.43841   0.91408   0.26308  -0.18021
C          C       0.08163   0.52307   0.27014  -0.18265
C          C       0.49034   0.54988   0.77072  -0.13271
C          C       0.45319   0.94129   0.76798  -0.13240
C          C       0.05734   0.51235   0.77278  -0.12857
C          C       0.51381   0.45744   0.76444  -0.12889
C          C       0.54471   0.05719   0.76440  -0.13053
C          C       0.94091   0.48955   0.77280  -0.13074
C          C       0.51393   0.45284   0.22012  -0.13410
C          C       0.54489   0.05669   0.23114  -0.13070
C          C       0.94154   0.48611   0.23303  -0.13062
C          C       0.48975   0.54717   0.23299  -0.13014
C          C       0.45090   0.93974   0.22629  -0.13010
C          C       0.05682   0.51004   0.23086  -0.13112
C          C       0.47593   0.53054   0.82271   0.06381
C          C       0.47278   0.94558   0.81862   0.06105
C          C       0.05323   0.52808   0.82353   0.06110
C          C       0.52848   0.47496   0.81908   0.05884
C          C       0.52826   0.05429   0.82087   0.05883
C          C       0.94529   0.47402   0.82294   0.06203
C          C       0.52995   0.47511   0.17461   0.06292
C          C       0.52635   0.05292   0.17841   0.06269
C          C       0.94536   0.47108   0.18027   0.06335
C          C       0.47543   0.52867   0.17934   0.06184
C          C       0.46999   0.94396   0.17424   0.06458
C          C       0.05291   0.52575   0.18038   0.06142
C          C       0.44688   0.52282   0.83573  -0.13303
C          C       0.48049   0.92390   0.82843  -0.13206
C          C       0.07540   0.55735   0.83480  -0.13404
C          C       0.55677   0.48027   0.83227  -0.13224
C          C       0.52376   0.07777   0.83730  -0.13116
C          C       0.92383   0.44438   0.83246  -0.13262
C          C       0.55992   0.48529   0.16806  -0.13459
C          C       0.51986   0.07533   0.16634  -0.13274
C          C       0.92352   0.44177   0.16848  -0.13426
C          C       0.44634   0.52104   0.16720  -0.13248
C          C       0.47676   0.92171   0.16162  -0.13408
C          C       0.07456   0.55536   0.17163  -0.13345
C          C       0.49077   0.51811   0.92996   0.02349
C          C       0.48491   0.97239   0.92744   0.02302
C          C       0.02612   0.51344   0.93159   0.02262
C          C       0.51467   0.48777   0.92834   0.02393
C          C       0.51552   0.02686   0.92897   0.02534
C          C       0.97200   0.48769   0.93161   0.02348
C          C       0.51523   0.48796   0.06792   0.02279
C          C       0.51447   0.02620   0.06926   0.02342
C          C       0.97196   0.48634   0.07153   0.02363
C          C       0.49067   0.51755   0.06989   0.02415
C          C       0.48371   0.97172   0.06706   0.02380
C          C       0.02613   0.51222   0.07148   0.02307
C          C       0.49005   0.51726   0.86057   0.02164
C          C       0.48618   0.97289   0.85818   0.02300
C          C       0.02595   0.51440   0.86225   0.02427
C          C       0.51517   0.48868   0.85897   0.02274
C          C       0.51474   0.02691   0.85944   0.02259
C          C       0.97238   0.48795   0.86219   0.02288
C          C       0.51597   0.48866   0.13709   0.02275
C          C       0.51284   0.02563   0.13864   0.02193
C          C       0.97234   0.48538   0.14083   0.02141
C          C       0.48988   0.51616   0.13924   0.02122
C          C       0.48393   0.97161   0.13647   0.02048
C          C       0.02590   0.51204   0.14089   0.02304
C          C       0.38360   0.63388   0.53523   0.01821
C          C       0.36228   0.74759   0.53147   0.01800
C          C       0.24902   0.61225   0.53681   0.02075
C          C       0.61619   0.36667   0.53035   0.01863
C          C       0.63656   0.25145   0.53546   0.01783
C          C       0.74938   0.38652   0.53796   0.01826
C          C       0.61672   0.36634   0.46164   0.01694
C          C       0.63582   0.25095   0.46665   0.01821
C          C       0.75024   0.38469   0.46930   0.01739
C          C       0.38412   0.63403   0.46647   0.01814
C          C       0.36255   0.74718   0.46268   0.01744
C          C       0.24859   0.61177   0.46804   0.01609
C          C       0.36668   0.64355   0.56869  -0.19360
C          C       0.35225   0.72117   0.56602  -0.19336
C          C       0.27572   0.62913   0.56969  -0.19525
C          C       0.63184   0.35627   0.56574  -0.19450
C          C       0.64635   0.27818   0.56929  -0.19310
C          C       0.72253   0.37099   0.57091  -0.19391
C          C       0.63295   0.35566   0.42895  -0.19269
C          C       0.64563   0.27748   0.43260  -0.19459
C          C       0.72402   0.36782   0.43451  -0.19125
C          C       0.36736   0.64338   0.43194  -0.19257
C          C       0.35269   0.72023   0.42942  -0.19299
C          C       0.27484   0.62795   0.43301  -0.19154
C          C       0.48085   0.53446   0.96745  -0.13983
C          C       0.46792   0.94572   0.96282  -0.13930
C          C       0.05248   0.52398   0.96800  -0.13970
C          C       0.52445   0.47112   0.96424  -0.13980
C          C       0.53230   0.05303   0.96681  -0.14083
C          C       0.94558   0.47636   0.96840  -0.13959
C          C       0.52504   0.47147   0.03092  -0.13933
C          C       0.53179   0.05273   0.03358  -0.14042
C          C       0.94554   0.47567   0.03512  -0.13902
C          C       0.48063   0.53405   0.03422  -0.14008
C          C       0.46726   0.94539   0.02951  -0.13924
C          C       0.05251   0.52344   0.03469  -0.14002
C          C       0.35061   0.65313   0.53409   0.04098
C          C       0.34265   0.69481   0.53269   0.04164
C          C       0.30138   0.64500   0.53455   0.04131
C          C       0.64786   0.34593   0.53291   0.04115
C          C       0.65563   0.30410   0.53509   0.04167
C          C       0.69697   0.35396   0.53599   0.04171
C          C       0.64853   0.34573   0.46439   0.04063
C          C       0.65573   0.30373   0.46654   0.04176
C          C       0.69765   0.35298   0.46749   0.04113
C          C       0.35066   0.65275   0.46554   0.04135
C          C       0.34267   0.69429   0.46414   0.04054
C          C       0.30108   0.64437   0.46600   0.04038
C          C       0.50261   0.50309   0.82720  -0.19567
C          C       0.50045  -0.00006   0.82621  -0.19571
C          C       0.99920   0.50151   0.82959  -0.19555
C          C       0.50294   0.50221   0.17090  -0.19678
C          C       0.49796   0.99846   0.17022  -0.19310
C          C       0.99911   0.49849   0.17348  -0.19389
C          C       0.50294   0.50287   0.03393  -0.00140
C          C       0.49934   0.99916   0.03321  -0.00078
C          C       0.99905   0.49962   0.03659   0.00024
C          C       0.50286   0.50298   0.96396  -0.00146
C          C       0.49993  -0.00049   0.96316  -0.00203
C          C       0.99905   0.50029   0.96656   0.00007
C          C       0.33129   0.66344   0.43592  -0.08217
C          C       0.66759   0.33412   0.43687  -0.08278
C          C       0.66645   0.33471   0.56399  -0.08056
C          C       0.33168   0.66462   0.56299  -0.08141
N          N       0.43190   0.56461   0.71399  -0.29161
N          N       0.43772   0.86812   0.70367  -0.28833
N          N       0.13114   0.56857   0.71255  -0.28565
N          N       0.56899   0.43911   0.70211  -0.28365
N          N       0.56409   0.13251   0.70993  -0.28503
N          N       0.86841   0.43183   0.70898  -0.28793
N          N       0.57240   0.44103   0.28870  -0.28769
N          N       0.56229   0.13128   0.29083  -0.29072
N          N       0.86796   0.42852   0.29250  -0.29288
N          N       0.43186   0.56155   0.29544  -0.28464
N          N       0.43373   0.86537   0.28433  -0.29006
N          N       0.12891   0.56760   0.29787  -0.28959

