data_crystal

_audit_creation_method 'AiiDA-DDEC plugin'

_cell_length_a        29.64573
_cell_length_b        29.77356
_cell_length_c        11.27502

_cell_angle_alpha     82.44000
_cell_angle_beta     90.21927
_cell_angle_gamma     120.78072

_symmetry_space_group_name_Hall 'P 1'
_symmetry_space_group_name_H-M  'P 1'

loop_
_symmetry_equiv_pos_as_xyz
 'x,y,z'

loop_
_atom_site_label
_atom_site_type_symbol
_atom_site_fract_x
_atom_site_fract_y
_atom_site_fract_z
_atom_site_charge
H          H       0.20005   0.06571   0.19195   0.24539
H          H       0.94114   0.14009   0.27361   0.24285
H          H       0.85518   0.79701   0.43698   0.24278
H          H       0.27476   0.08929   0.13375   0.11399
H          H       0.92882   0.19090   0.16110   0.12434
H          H       0.81861   0.74990   0.28193   0.11965
H          H       0.40673   0.23738   0.33355   0.12949
H          H       0.76978   0.18057   0.32826   0.13271
H          H       0.81181   0.58116   0.40596   0.11910
H          H       0.11543   0.00044   0.24412   0.09202
H          H       0.00068   0.11741   0.28505   0.08942
H          H       0.88378   0.88043   0.43172   0.08729
H          H       0.06602   0.09387   0.26009   0.12271
H          H       0.90855   0.97111   0.39698   0.12296
H          H       0.02721   0.93194   0.33756   0.12413
H          H       0.47255   0.26288   0.18223   0.25810
H          H       0.76574   0.23123   0.15992   0.25292
H          H       0.79467   0.55529   0.22982   0.25909
H          H       0.55446   0.33252   0.17013   0.08597
H          H       0.69879   0.24605   0.14737   0.08447
H          H       0.78820   0.47891   0.19396   0.08664
H          H       0.64070   0.40644   0.18934   0.11971
H          H       0.62363   0.25529   0.16553   0.11878
H          H       0.77800   0.39178   0.18023   0.12044
H          H       0.27708   0.21399   0.32318   0.34947
H          H       0.77798   0.06514   0.36712   0.35409
H          H       0.91937   0.69918   0.48002   0.35706
H          H       0.37597   0.06785   0.28432   0.07599
H          H       0.94141   0.32428   0.25981   0.09216
H          H       0.68387   0.63232   0.34601   0.09113
H          H       0.40153   0.05769   0.15685   0.09578
H          H       0.97305   0.35940   0.11922   0.09901
H          H       0.66115   0.61393   0.20637   0.10345
H          H       0.32228   0.98320   0.13112   0.08401
H          H       0.04039   0.37751   0.24177   0.11215
H          H       0.62372   0.66184   0.27106   0.12024
H          H       0.28733   0.01677   0.14101   0.11987
H          H       0.04491   0.33593   0.14998   0.11517
H          H       0.66397   0.69967   0.13906   0.11189
H          H       0.24820   0.96894   0.45789   0.14751
H          H       0.02300   0.23279   0.38596   0.14396
H          H       0.75893   0.81147   0.26710   0.15127
H          H       0.24480   0.00893   0.32654   0.14629
H          H       0.05249   0.26669   0.23442   0.15364
H          H       0.72133   0.78997   0.13745   0.15439
H          H       0.30430   0.03382   0.40315   0.13776
H          H       0.98177   0.23054   0.26655   0.11226
H          H       0.76290   0.76446   0.18862   0.14247
H          H       0.33662   0.93904   0.30611   0.13565
H          H       0.98275   0.32346   0.45155   0.14009
H          H       0.67578   0.68774   0.46476   0.13063
H          H       0.30067   0.92846   0.44646   0.15157
H          H       0.98584   0.26493   0.50410   0.13753
H          H       0.72525   0.75685   0.45951   0.13484
H          H       0.35811   0.99268   0.39015   0.14021
H          H       0.94170   0.26323   0.39342   0.13840
H          H       0.74062   0.71353   0.40023   0.13655
H          H       0.62037   0.71892   0.37898   0.13101
H          H       0.25337   0.90400   0.21516   0.12695
H          H       0.07870   0.37077   0.40680   0.12558
H          H       0.63878   0.75773   0.22995   0.16272
H          H       0.21537   0.93552   0.22143   0.14761
H          H       0.10584   0.34622   0.30681   0.16106
H          H       0.67295   0.78681   0.35857   0.15298
H          H       0.22029   0.89720   0.35631   0.16440
H          H       0.07877   0.31073   0.45736   0.14880
H          H       0.19158   0.04699   0.92065   0.23938
H          H       0.94775   0.14544   0.71921   0.24095
H          H       0.86650   0.80556   0.68477   0.23911
H          H       0.24879   0.06690   0.76084   0.12012
H          H       0.93242   0.20209   0.68691   0.11662
H          H       0.80812   0.73519   0.65786   0.11130
H          H       0.41327   0.21591   0.87310   0.12945
H          H       0.76794   0.16679   0.89669   0.12977
H          H       0.83712   0.58639   0.78594   0.13215
H          H       0.10913   0.99023   0.88531   0.08658
H          H       0.00769   0.12174   0.73850   0.09527
H          H       0.89086   0.88936   0.69519   0.09070
H          H       0.06679   0.09072   0.81971   0.12347
H          H       0.91496   0.97920   0.70969   0.12038
H          H       0.02337   0.92852   0.82074   0.11984
H          H       0.45414   0.23568   0.68496   0.25233
H          H       0.75412   0.21240   0.71776   0.25486
H          H       0.78785   0.53664   0.63928   0.25644
H          H       0.53566   0.30711   0.63339   0.08547
H          H       0.68380   0.22118   0.67849   0.08677
H          H       0.77319   0.45670   0.61726   0.08238
H          H       0.62401   0.38536   0.62534   0.11965
H          H       0.60592   0.23073   0.66837   0.12011
H          H       0.76057   0.36965   0.65401   0.11901
H          H       0.29149   0.20645   0.93959   0.35561
H          H       0.79708   0.06431   0.91584   0.34701
H          H       0.93900   0.71701   0.80926   0.34724
H          H       0.36966   0.04591   0.79602   0.08988
H          H       0.94584   0.31087   0.82452   0.07970
H          H       0.70715   0.63840   0.81988   0.08269
H          H       0.38319   0.04680   0.64466   0.10424
H          H       0.96457   0.35917   0.69688   0.09137
H          H       0.65416   0.60269   0.73272   0.09119
H          H       0.33408   0.95739   0.73479   0.11943
H          H       0.04014   0.35685   0.64619   0.08999
H          H       0.65417   0.68027   0.64309   0.08670
H          H       0.29332   0.96626   0.63208   0.11335
H          H       0.00562   0.28662   0.67529   0.10863
H          H       0.72348   0.72147   0.65223   0.11117
H          H       0.19080   0.94212   0.84053   0.14768
H          H       0.03638   0.27738   0.98328   0.14636
H          H       0.71438   0.75216   0.94459   0.14622
H          H       0.20483   0.92885   0.69617   0.15598
H          H       0.00425   0.24117   0.86086   0.14394
H          H       0.75780   0.76316   0.81701   0.14818
H          H       0.23435   0.99592   0.72693   0.14233
H          H       0.97455   0.26981   0.93950   0.12880
H          H       0.72936   0.70218   0.92065   0.13724
H          H       0.31703   0.97656   0.95229   0.12729
H          H       0.07486   0.40667   0.81252   0.13355
H          H       0.59548   0.65199   0.82256   0.13750
H          H       0.24948   0.95648   0.99135   0.13417
H          H       0.07902   0.37247   0.95378   0.15264
H          H       0.62044   0.68835   0.94754   0.15181
H          H       0.29162   0.01875   0.90389   0.14375
H          H       0.01699   0.36640   0.91293   0.13564
H          H       0.63565   0.63812   0.92201   0.14165
H          H       0.63443   0.73861   0.69551   0.13051
H          H       0.28204   0.89250   0.88744   0.13006
H          H       0.11626   0.36573   0.72005   0.13075
H          H       0.70430   0.78475   0.69377   0.14736
H          H       0.23927   0.87632   0.76374   0.16052
H          H       0.08380   0.29459   0.73872   0.15005
H          H       0.66069   0.77115   0.82490   0.16168
H          H       0.21511   0.87599   0.91149   0.15063
H          H       0.11426   0.33000   0.86434   0.16261
C          C       0.32387   0.95710   0.36631  -0.32460
C          C       0.98011   0.28784   0.42738  -0.32638
C          C       0.70955   0.72225   0.41308  -0.33700
C          C       0.23363   0.14159   0.24501   0.44742
C          C       0.85995   0.09343   0.30284   0.44810
C          C       0.89882   0.76043   0.42123   0.45014
C          C       0.65270   0.75071   0.31755  -0.32842
C          C       0.24012   0.92312   0.27092  -0.32162
C          C       0.07597   0.33547   0.37995  -0.31300
C          C       0.28811   0.15246   0.23363  -0.15571
C          C       0.85516   0.14055   0.26915  -0.15414
C          C       0.85440   0.71194   0.38497  -0.14563
C          C       0.30301   0.12161   0.17925  -0.20154
C          C       0.89500   0.18862   0.20521  -0.21657
C          C       0.81570   0.71235   0.31351  -0.19736
C          C       0.35427   0.13181   0.17977   0.19158
C          C       0.89310   0.23482   0.19113   0.19614
C          C       0.77506   0.66680   0.27586   0.19363
C          C       0.39246   0.17367   0.23615  -0.11669
C          C       0.84666   0.23226   0.23402  -0.10981
C          C       0.77375   0.61844   0.30769  -0.10270
C          C       0.37848   0.20531   0.28803  -0.24308
C          C       0.80539   0.18363   0.29214  -0.23535
C          C       0.81255   0.61794   0.37855  -0.24199
C          C       0.32695   0.19596   0.28669   0.31394
C          C       0.80848   0.13770   0.31060   0.31374
C          C       0.85354   0.66376   0.41576   0.31041
C          C       0.44725   0.18375   0.24084   0.46375
C          C       0.83919   0.27892   0.22341   0.45922
C          C       0.73316   0.56767   0.26769   0.45898
C          C       0.10698   0.03106   0.26032  -0.00101
C          C       0.96917   0.07589   0.31073   0.00928
C          C       0.92391   0.88995   0.40797  -0.00500
C          C       0.05289   0.01504   0.29671   0.08074
C          C       0.98521   0.03678   0.32760   0.07182
C          C       0.96405   0.94551   0.37401   0.07757
C          C       0.03719   0.05262   0.29316  -0.15310
C          C       0.94888   0.98308   0.37024  -0.15822
C          C       0.01615   0.96170   0.33592  -0.15003
C          C       0.56888   0.30488   0.18304  -0.01295
C          C       0.72576   0.28637   0.16631  -0.00559
C          C       0.74526   0.46123   0.19859  -0.01300
C          C       0.62577   0.32798   0.17829   0.08072
C          C       0.70364   0.32015   0.17113   0.07781
C          C       0.71279   0.40540   0.18588   0.07779
C          C       0.65777   0.38187   0.18406  -0.16019
C          C       0.64900   0.29722   0.17065  -0.16100
C          C       0.73559   0.37456   0.17901  -0.16215
C          C       0.36811   0.05934   0.19233   0.00347
C          C       0.96597   0.32554   0.18587  -0.01182
C          C       0.68644   0.64817   0.25124  -0.00389
C          C       0.31598   0.00806   0.18386  -0.15144
C          C       0.01992   0.33691   0.22082  -0.15998
C          C       0.66478   0.68489   0.23310  -0.14694
C          C       0.27019   0.99836   0.37849  -0.30806
C          C       0.01989   0.25407   0.30201  -0.31892
C          C       0.73772   0.77876   0.21569  -0.31152
C          C       0.28246   0.97783   0.92282  -0.32897
C          C       0.05406   0.37116   0.87975  -0.31830
C          C       0.62821   0.66884   0.88028  -0.32065
C          C       0.23122   0.12844   0.88897   0.45271
C          C       0.87151   0.09886   0.80988   0.44155
C          C       0.90669   0.76687   0.75159   0.44677
C          C       0.66844   0.75523   0.74972  -0.31635
C          C       0.24941   0.89447   0.84667  -0.32467
C          C       0.09345   0.32893   0.78272  -0.31604
C          C       0.28208   0.13358   0.85565  -0.14749
C          C       0.86199   0.14342   0.79984  -0.15624
C          C       0.86370   0.71368   0.73194  -0.15677
C          C       0.28502   0.09848   0.78889  -0.20061
C          C       0.89636   0.19371   0.73469  -0.20236
C          C       0.81519   0.70314   0.68834  -0.21781
C          C       0.33260   0.10422   0.75121   0.18813
C          C       0.88602   0.23439   0.72943   0.18836
C          C       0.77485   0.65189   0.68180   0.18890
C          C       0.38014   0.14768   0.78081  -0.11076
C          C       0.83893   0.22505   0.78590  -0.11322
C          C       0.78171   0.60869   0.71730  -0.11145
C          C       0.37738   0.18312   0.84700  -0.22814
C          C       0.80423   0.17520   0.85067  -0.25063
C          C       0.83024   0.61854   0.75655  -0.23687
C          C       0.32938   0.17795   0.88203   0.31059
C          C       0.81535   0.13426   0.86086   0.30868
C          C       0.87144   0.67030   0.76498   0.31288
C          C       0.43391   0.15811   0.74629   0.46486
C          C       0.82612   0.26789   0.77387   0.46009
C          C       0.73595   0.55361   0.71830   0.46458
C          C       0.10235   0.02329   0.86430  -0.00570
C          C       0.97547   0.08026   0.75365   0.00961
C          C       0.92723   0.89499   0.73337  -0.00427
C          C       0.05066   0.01105   0.82625   0.07475
C          C       0.98878   0.03897   0.76510   0.07878
C          C       0.96514   0.94766   0.76119   0.07535
C          C       0.03797   0.05087   0.80404  -0.15540
C          C       0.95265   0.98742   0.74237  -0.16139
C          C       0.01409   0.95968   0.80550  -0.16165
C          C       0.55135   0.28069   0.65157  -0.01117
C          C       0.70902   0.26341   0.68512  -0.01665
C          C       0.73091   0.44061   0.63693  -0.01244
C          C       0.60860   0.30506   0.64537   0.07771
C          C       0.68612   0.29671   0.66232   0.08033
C          C       0.69593   0.38389   0.63772   0.08059
C          C       0.64088   0.36018   0.63431  -0.16384
C          C       0.63163   0.27350   0.65835  -0.16500
C          C       0.71823   0.35216   0.64990  -0.16444
C          C       0.35114   0.03636   0.71170  -0.00660
C          C       0.96032   0.32078   0.72978   0.00514
C          C       0.69167   0.63998   0.73188   0.00192
C          C       0.31194   0.97759   0.71606  -0.14968
C          C       0.01241   0.32219   0.71027  -0.15757
C          C       0.68672   0.68879   0.70027  -0.15224
C          C       0.22007   0.95490   0.76535  -0.31063
C          C       0.01150   0.27385   0.90826  -0.31166
C          C       0.72346   0.73376   0.87753  -0.30694
N          N       0.19344   0.09319   0.22350  -0.21786
N          N       0.91019   0.10211   0.29435  -0.21761
N          N       0.89201   0.80295   0.41674  -0.23454
N          N       0.14324   0.08043   0.25256  -0.09598
N          N       0.91999   0.06195   0.31987  -0.10085
N          N       0.93482   0.85319   0.40351  -0.10479
N          N       0.48504   0.23687   0.20663  -0.24228
N          N       0.79037   0.26748   0.18476  -0.23333
N          N       0.75463   0.53839   0.23558  -0.23937
N          N       0.53725   0.25419   0.20506  -0.09760
N          N       0.77422   0.30269   0.18792  -0.09845
N          N       0.72289   0.48742   0.21885  -0.09479
N          N       0.28836   0.97239   0.30066   0.29660
N          N       0.02275   0.30331   0.33224   0.30136
N          N       0.69173   0.73392   0.29539   0.29807
N          N       0.18799   0.07898   0.88506  -0.23588
N          N       0.91767   0.10801   0.75815  -0.22304
N          N       0.89911   0.80891   0.72658  -0.21719
N          N       0.13959   0.07194   0.86551  -0.10232
N          N       0.92655   0.06675   0.76775  -0.11367
N          N       0.93689   0.85693   0.75413  -0.10763
N          N       0.46851   0.21074   0.69754  -0.23639
N          N       0.77566   0.25034   0.73604  -0.24105
N          N       0.74930   0.52137   0.66786  -0.24522
N          N       0.52113   0.23020   0.68429  -0.09673
N          N       0.75690   0.28352   0.71602  -0.09608
N          N       0.71309   0.46948   0.66663  -0.09626
N          N       0.26632   0.95197   0.81309   0.29857
N          N       0.04216   0.32426   0.82075   0.29628
N          N       0.67653   0.71073   0.80318   0.29351
Cl         Cl      0.80205   0.80942   0.57966  -0.64601
Cl         Cl      0.22220   0.87827   0.56733  -0.69719
Cl         Cl      0.01839   0.21642   0.63013  -0.65075
Cl         Cl      0.64041   0.76424   0.02788  -0.69706
Cl         Cl      0.19946   0.00228   0.08748  -0.66580
Cl         Cl      0.11820   0.33583   0.08442  -0.70453
O          O       0.22427   0.17415   0.28233  -0.45327
O          O       0.82083   0.04928   0.34251  -0.44653
O          O       0.94043   0.76223   0.44999  -0.44757
O          O       0.45810   0.14945   0.27219  -0.45471
O          O       0.87122   0.32231   0.25082  -0.44198
O          O       0.68601   0.55210   0.26594  -0.44876
O          O       0.31626   0.22811   0.33731  -0.43856
O          O       0.76726   0.09267   0.36725  -0.42960
O          O       0.89122   0.66085   0.47705  -0.43378
O          O       0.36904   0.10319   0.11803  -0.23260
O          O       0.93598   0.27921   0.12657  -0.23608
O          O       0.74038   0.67280   0.20056  -0.24088
O          O       0.22905   0.16701   0.91384  -0.44593
O          O       0.83825   0.05427   0.86661  -0.46165
O          O       0.94823   0.77273   0.79457  -0.45670
O          O       0.44716   0.12493   0.76209  -0.45458
O          O       0.85593   0.31302   0.79453  -0.45150
O          O       0.69141   0.53817   0.76050  -0.45188
O          O       0.32939   0.21524   0.93802  -0.43234
O          O       0.78132   0.08768   0.92698  -0.43952
O          O       0.91662   0.67687   0.80618  -0.43930
O          O       0.32918   0.06925   0.67544  -0.23449
O          O       0.92058   0.28339   0.66156  -0.22939
O          O       0.72690   0.64246   0.63935  -0.23192

