data_crystal

_audit_creation_method 'AiiDA-DDEC plugin'

_cell_length_a        30.14866
_cell_length_b        30.16861
_cell_length_c        10.72363

_cell_angle_alpha     71.09389
_cell_angle_beta     90.78400
_cell_angle_gamma     120.92296

_symmetry_space_group_name_Hall 'P 1'
_symmetry_space_group_name_H-M  'P 1'

loop_
_symmetry_equiv_pos_as_xyz
 'x,y,z'

loop_
_atom_site_label
_atom_site_type_symbol
_atom_site_fract_x
_atom_site_fract_y
_atom_site_fract_z
_atom_site_charge
H          H       0.90182   0.97195   0.29979   0.12308
H          H       0.02879   0.95105   0.22493   0.12324
H          H       0.06175   0.09822   0.28855   0.11746
H          H       0.79695   0.68898   0.00652   0.14699
H          H       0.36540   0.13637   0.08490   0.15393
H          H       0.90703   0.27881   0.06240   0.16341
H          H       0.89926   0.68399   0.36917   0.12960
H          H       0.31160   0.22340   0.31653   0.13134
H          H       0.77514   0.08622   0.36778   0.13190
H          H       0.83388   0.50991   0.97674   0.08616
H          H       0.44231   0.28214   0.91634   0.08488
H          H       0.68745   0.12315   0.91008   0.08496
H          H       0.89778   0.61549   0.44713   0.07650
H          H       0.36799   0.25704   0.42392   0.07193
H          H       0.71621   0.07702   0.47300   0.07942
H          H       0.92726   0.62539   0.20904   0.10472
H          H       0.36985   0.33091   0.21892   0.09973
H          H       0.70123   0.09428   0.22815   0.09975
H          H       0.89240   0.55226   0.26708   0.09000
H          H       0.43885   0.37182   0.19985   0.09107
H          H       0.66340   0.11982   0.26050   0.09140
H          H       0.95075   0.56528   0.46328   0.07540
H          H       0.42634   0.37092   0.43823   0.08449
H          H       0.60514   0.02400   0.45783   0.07398
H          H       0.99274   0.63209   0.34318   0.09693
H          H       0.35854   0.33905   0.43908   0.08953
H          H       0.63858   0.00070   0.39222   0.09782
H          H       0.88647   0.81630   0.04454   0.33246
H          H       0.25328   0.11489   0.03169   0.33581
H          H       0.93127   0.17403   0.08380   0.33558
H          H       0.79004   0.53941   0.27302   0.23576
H          H       0.47198   0.26550   0.23666   0.23936
H          H       0.75074   0.22074   0.25200   0.22683
H          H       0.77720   0.45822   0.27624   0.07874
H          H       0.55120   0.32890   0.23687   0.08317
H          H       0.68516   0.23416   0.22876   0.07756
H          H       0.64051   0.40512   0.21647   0.11646
H          H       0.61433   0.25285   0.19908   0.11660
H          H       0.76817   0.37861   0.22572   0.11604
H          H       0.86708   0.80737   0.24664   0.26208
H          H       0.20243   0.09097   0.17650   0.25556
H          H       0.92942   0.13686   0.29476   0.25596
H          H       0.88193   0.88636   0.26663   0.09535
H          H       0.11964   0.02735   0.18739   0.10055
H          H       0.99107   0.11361   0.31948   0.08707
H          H       0.99201   0.58397   0.17957   0.08302
H          H       0.37690   0.42188   0.23507   0.09085
H          H       0.60991   0.02681   0.16978   0.07688
H          H       0.95505   0.52039   0.31501   0.08345
H          H       0.44486   0.45219   0.23321   0.08791
H          H       0.57538   0.04736   0.24137   0.07709
H          H       0.03289   0.57007   0.44045   0.08028
H          H       0.43309   0.45249   0.46233   0.08699
H          H       0.53969   0.93643   0.42424   0.09677
H          H       0.06981   0.61374   0.27963   0.10772
H          H       0.36541   0.42567   0.46350   0.08495
H          H       0.54523   0.93367   0.26712   0.10187
H          H       0.08559   0.54731   0.26696   0.10429
H          H       0.38647   0.51033   0.26769   0.09824
H          H       0.45757   0.90665   0.30406   0.10513
H          H       0.01566   0.49851   0.29278   0.08910
H          H       0.45540   0.53519   0.24940   0.10269
H          H       0.48881   0.98009   0.21052   0.08743
H          H       0.96757   0.43260   0.52266   0.13956
H          H       0.50763   0.57467   0.38741   0.15576
H          H       0.49748   0.03973   0.33993   0.13295
H          H       0.98865   0.49049   0.57334   0.12206
H          H       0.46690   0.51481   0.53806   0.10985
H          H       0.52736   0.01242   0.46165   0.12085
H          H       0.12087   0.51094   0.09450   0.14947
H          H       0.54413   0.54781   0.06942   0.15712
H          H       0.36291   0.85792   0.12126   0.15515
H          H       0.02828   0.42538   0.40563   0.13566
H          H       0.47341   0.62025   0.24372   0.15364
H          H       0.41525   0.97724   0.28706   0.12968
H          H       0.06231   0.42817   0.54477   0.15368
H          H       0.44375   0.62438   0.38298   0.15755
H          H       0.38772   0.94593   0.46390   0.15719
H          H       0.09840   0.47665   0.37551   0.15207
H          H       0.40400   0.59503   0.26998   0.13417
H          H       0.38401   0.90267   0.37290   0.15488
H          H       0.08823   0.56111   0.53230   0.11728
H          H       0.37057   0.47599   0.57811   0.12590
H          H       0.48323   0.91016   0.57386   0.11318
H          H       0.13068   0.55051   0.44495   0.15774
H          H       0.34531   0.51194   0.46410   0.13607
H          H       0.42215   0.86595   0.52777   0.15976
H          H       0.16247   0.60662   0.01333   0.15947
H          H       0.47539   0.56411   0.04080   0.14294
H          H       0.39153   0.79454   0.16898   0.16491
H          H       0.89793   0.95213   0.76718   0.12358
H          H       0.03089   0.93525   0.74654   0.12746
H          H       0.05042   0.08086   0.79291   0.11916
H          H       0.78951   0.67432   0.50125   0.14705
H          H       0.35398   0.14561   0.51255   0.14955
H          H       0.89368   0.24932   0.44211   0.15405
H          H       0.89025   0.65831   0.86281   0.12730
H          H       0.31369   0.19622   0.87084   0.12087
H          H       0.76479   0.07525   0.81647   0.13266
H          H       0.85859   0.54293   0.48679   0.06703
H          H       0.43668   0.30155   0.40654   0.07384
H          H       0.68206   0.10848   0.48944   0.07309
H          H       0.86809   0.57856   0.97470   0.07158
H          H       0.37365   0.24760   0.92809   0.07386
H          H       0.71928   0.08665   0.92510   0.07911
H          H       0.92825   0.61100   0.75903   0.09968
H          H       0.38909   0.32179   0.70054   0.09211
H          H       0.67647   0.05288   0.74398   0.09534
H          H       0.89113   0.54332   0.75675   0.08479
H          H       0.45728   0.35445   0.69947   0.09166
H          H       0.65253   0.09716   0.71127   0.08869
H          H       0.91527   0.50710   0.97872   0.09456
H          H       0.42968   0.35005   0.94414   0.08488
H          H       0.59816   0.04462   0.94506   0.08334
H          H       0.95533   0.57563   0.97256   0.07937
H          H       0.37373   0.34514   0.88327   0.09119
H          H       0.61919   0.99824   0.97508   0.08952
H          H       0.88465   0.79804   0.54205   0.33672
H          H       0.24629   0.12730   0.50388   0.34068
H          H       0.91491   0.13886   0.54235   0.32434
H          H       0.79287   0.52458   0.70975   0.23927
H          H       0.47491   0.26378   0.67649   0.24102
H          H       0.74128   0.21099   0.59613   0.23635
H          H       0.78513   0.45211   0.65437   0.08191
H          H       0.55902   0.33226   0.63622   0.08264
H          H       0.68240   0.23456   0.56158   0.07762
H          H       0.64696   0.40395   0.60878   0.11718
H          H       0.61577   0.25664   0.54883   0.11818
H          H       0.77216   0.37582   0.58094   0.11579
H          H       0.86750   0.79032   0.74280   0.25923
H          H       0.19880   0.08573   0.68530   0.25702
H          H       0.91766   0.11674   0.74931   0.26098
H          H       0.88400   0.86900   0.75129   0.09066
H          H       0.11879   0.01645   0.70880   0.09761
H          H       0.97871   0.09528   0.78690   0.08571
H          H       0.01066   0.60183   0.75659   0.08490
H          H       0.43353   0.43524   0.68479   0.07784
H          H       0.57651   0.96778   0.79118   0.08851
H          H       0.97028   0.53343   0.76113   0.08825
H          H       0.48851   0.43738   0.74651   0.08936
H          H       0.55756   0.01626   0.75378   0.09560
H          H       0.99382   0.49683   0.97850   0.11046
H          H       0.45298   0.43636   0.96482   0.07559
H          H       0.50379   0.97066   0.98154   0.09579
H          H       0.03070   0.56431   0.98230   0.07864
H          H       0.40739   0.44846   0.88138   0.09915
H          H       0.52420   0.92317   0.02868   0.08539
H          H       0.08483   0.59051   0.74638   0.08530
H          H       0.47372   0.54016   0.73180   0.10446
H          H       0.48207   0.88791   0.84508   0.08988
H          H       0.05541   0.51625   0.80165   0.10674
H          H       0.52441   0.52490   0.75228   0.09493
H          H       0.45893   0.93442   0.80831   0.10676
H          H       0.07242   0.46898   0.00811   0.15632
H          H       0.56754   0.53225   0.94421   0.14016
H          H       0.39058   0.91727   0.95989   0.15399
H          H       0.05785   0.50211   0.10003   0.12150
H          H       0.50577   0.48032   0.05582   0.11359
H          H       0.42672   0.91581   0.09625   0.12340
H          H       0.00383   0.43950   0.66031   0.15868
H          H       0.47900   0.58101   0.52611   0.14895
H          H       0.46653   0.00454   0.51626   0.15536
H          H       0.13297   0.51885   0.81259   0.15355
H          H       0.57805   0.61230   0.76913   0.13136
H          H       0.37335   0.86182   0.83797   0.15410
H          H       0.18356   0.56421   0.88430   0.15622
H          H       0.55811   0.62752   0.90007   0.15748
H          H       0.34393   0.79987   0.98949   0.15546
H          H       0.16605   0.59382   0.73337   0.13740
H          H       0.52425   0.62347   0.75781   0.15490
H          H       0.39562   0.81425   0.87170   0.13913
H          H       0.10493   0.60885   0.99577   0.13065
H          H       0.43123   0.49675   0.03072   0.11230
H          H       0.45613   0.84853   0.15494   0.13885
H          H       0.15509   0.64385   0.84954   0.13374
H          H       0.44299   0.55862   0.89621   0.15490
H          H       0.44395   0.80803   0.05146   0.13158
H          H       0.09439   0.50319   0.61778   0.14332
H          H       0.38776   0.54332   0.57310   0.15815
H          H       0.42541   0.90879   0.62078   0.13611
C          C       0.94342   0.98639   0.28926  -0.17066
C          C       0.01544   0.97551   0.24718  -0.15609
C          C       0.03316   0.05788   0.28415  -0.16378
C          C       0.88229   0.73465   0.21382  -0.15086
C          C       0.28510   0.16072   0.23283  -0.13412
C          C       0.84913   0.13952   0.23431  -0.16135
C          C       0.85374   0.73700   0.10901   0.27223
C          C       0.30037   0.13817   0.15822   0.26910
C          C       0.88703   0.19392   0.14645   0.26732
C          C       0.81929   0.68836   0.08683  -0.19376
C          C       0.35316   0.15521   0.13615  -0.19033
C          C       0.87854   0.23657   0.13095  -0.17912
C          C       0.81232   0.63726   0.16427  -0.09705
C          C       0.39230   0.19691   0.17572  -0.10625
C          C       0.83317   0.22640   0.19935  -0.10761
C          C       0.84171   0.63542   0.26828   0.20195
C          C       0.37728   0.22408   0.23563   0.21226
C          C       0.79526   0.17145   0.28801   0.19242
C          C       0.87626   0.68379   0.29031  -0.20437
C          C       0.32436   0.20500   0.26541  -0.23760
C          C       0.80333   0.12891   0.30237  -0.21347
C          C       0.87724   0.58340   0.40370   0.02351
C          C       0.40418   0.29033   0.35081   0.02951
C          C       0.70554   0.10659   0.41639   0.02702
C          C       0.91446   0.58794   0.29865  -0.20136
C          C       0.40231   0.34143   0.27495  -0.19901
C          C       0.67514   0.09012   0.30761  -0.19940
C          C       0.96225   0.58928   0.35435  -0.14391
C          C       0.39731   0.36717   0.37220  -0.14576
C          C       0.62636   0.03071   0.36405  -0.15009
C          C       0.77456   0.58980   0.12217   0.44768
C          C       0.44698   0.20887   0.14440   0.44931
C          C       0.82890   0.27653   0.16516   0.44940
C          C       0.74372   0.45283   0.22605  -0.01060
C          C       0.56598   0.30663   0.20681  -0.00456
C          C       0.71416   0.27850   0.20708  -0.01780
C          C       0.70835   0.39863   0.21780   0.07955
C          C       0.62123   0.32656   0.20687   0.07846
C          C       0.69411   0.31303   0.20805   0.07237
C          C       0.65503   0.37904   0.21316  -0.16301
C          C       0.64105   0.29360   0.20395  -0.16370
C          C       0.72751   0.36526   0.21757  -0.17174
C          C       0.92386   0.90067   0.25712  -0.01368
C          C       0.10711   0.04671   0.23733   0.01398
C          C       0.96265   0.07555   0.30223  -0.01153
C          C       0.96110   0.95463   0.26568   0.07638
C          C       0.05130   0.02635   0.25832   0.07712
C          C       0.97966   0.03881   0.29580   0.07596
C          C       0.92033   0.78321   0.24792   0.46347
C          C       0.23011   0.13879   0.29133   0.46014
C          C       0.85343   0.09059   0.25883   0.45187
C          C       0.98493   0.56482   0.28959  -0.15442
C          C       0.40610   0.42473   0.29992  -0.14992
C          C       0.58840   0.01811   0.26529  -0.16159
C          C       0.03582   0.57185   0.33683  -0.17396
C          C       0.40429   0.45158   0.39772  -0.17215
C          C       0.54030   0.95740   0.31878  -0.16912
C          C       0.04698   0.52833   0.32964  -0.11703
C          C       0.41782   0.51060   0.32126  -0.11467
C          C       0.48620   0.94884   0.30342  -0.12260
C          C       0.99834   0.46144   0.56251  -0.32628
C          C       0.47419   0.55462   0.46972  -0.33129
C          C       0.49015   0.00650   0.43429  -0.32138
C          C       0.06055   0.45247   0.44577  -0.31143
C          C       0.43777   0.60078   0.31833  -0.31119
C          C       0.40694   0.94374   0.38187  -0.31507
C          C       0.09473   0.53025   0.51955  -0.32681
C          C       0.37865   0.51676   0.51367  -0.32653
C          C       0.44635   0.90499   0.54571  -0.32710
C          C       0.93930   0.96754   0.77040  -0.16616
C          C       0.01466   0.95892   0.75857  -0.15116
C          C       0.02482   0.04038   0.78551  -0.16340
C          C       0.87562   0.71311   0.71196  -0.14844
C          C       0.28126   0.14908   0.74540  -0.12308
C          C       0.83647   0.11780   0.67624  -0.15997
C          C       0.84738   0.71808   0.60765   0.26580
C          C       0.29296   0.13696   0.63800   0.26717
C          C       0.87279   0.16681   0.56793   0.26235
C          C       0.81133   0.67089   0.58157  -0.18702
C          C       0.34511   0.15701   0.59089  -0.18471
C          C       0.86559   0.21128   0.52483  -0.18453
C          C       0.80300   0.61861   0.65344  -0.10107
C          C       0.38740   0.19303   0.63755  -0.11744
C          C       0.82294   0.20837   0.58549  -0.09881
C          C       0.83171   0.61367   0.75743   0.21100
C          C       0.37570   0.20889   0.73764   0.21978
C          C       0.78604   0.15865   0.69328   0.20333
C          C       0.86747   0.66060   0.78437  -0.20806
C          C       0.32337   0.18608   0.79106  -0.22748
C          C       0.79276   0.11407   0.73571  -0.22179
C          C       0.85729   0.55392   0.91057   0.02891
C          C       0.41114   0.27444   0.85669   0.02531
C          C       0.70356   0.10815   0.85446   0.03182
C          C       0.90522   0.56672   0.82389  -0.20075
C          C       0.41850   0.32926   0.76577  -0.20023
C          C       0.66135   0.07090   0.79173  -0.20399
C          C       0.93966   0.55065   0.90913  -0.14488
C          C       0.41514   0.36036   0.85099  -0.14103
C          C       0.61090   0.02526   0.89537  -0.14630
C          C       0.76415   0.57288   0.60780   0.45382
C          C       0.44116   0.21214   0.56971   0.44552
C          C       0.82171   0.26071   0.53458   0.45602
C          C       0.74905   0.44736   0.61934  -0.02683
C          C       0.56959   0.30983   0.59258  -0.00097
C          C       0.71380   0.27703   0.55011  -0.01047
C          C       0.71388   0.39686   0.59266   0.07996
C          C       0.62525   0.32862   0.57619   0.07941
C          C       0.69676   0.31360   0.55828   0.07888
C          C       0.66057   0.37882   0.59210  -0.16329
C          C       0.64370   0.29617   0.55837  -0.16112
C          C       0.73161   0.36395   0.57632  -0.17320
C          C       0.92560   0.88255   0.74920  -0.01030
C          C       0.10347   0.03312   0.76087   0.01843
C          C       0.95138   0.05545   0.77584  -0.00961
C          C       0.96043   0.93663   0.76035   0.07667
C          C       0.04692   0.01032   0.77237   0.07668
C          C       0.97145   0.01993   0.78090   0.07573
C          C       0.91683   0.76095   0.74574   0.46236
C          C       0.22689   0.12409   0.81845   0.45780
C          C       0.84016   0.06761   0.72633   0.45566
C          C       0.98561   0.55819   0.82507  -0.14296
C          C       0.44750   0.42381   0.77797  -0.14907
C          C       0.56536   0.98954   0.83588  -0.14905
C          C       0.01859   0.54110   0.91473  -0.17833
C          C       0.44658   0.45504   0.86542  -0.17375
C          C       0.51516   0.94745   0.94375  -0.17019
C          C       0.06648   0.55134   0.83369  -0.11145
C          C       0.48849   0.51746   0.80293  -0.11215
C          C       0.47051   0.91004   0.88681  -0.11434
C          C       0.08860   0.50496   0.03906  -0.32354
C          C       0.53287   0.52490   0.00049  -0.32719
C          C       0.39803   0.89129   0.04498  -0.31361
C          C       0.15151   0.55844   0.82861  -0.31104
C          C       0.54505   0.60783   0.82542  -0.31701
C          C       0.38002   0.83268   0.91584  -0.31632
C          C       0.13530   0.60794   0.94410  -0.33100
C          C       0.45975   0.54082   0.97387  -0.32544
C          C       0.42871   0.82612   0.09797  -0.31868
N          N       0.76913   0.53989   0.19658  -0.24127
N          N       0.48484   0.25010   0.18356  -0.23155
N          N       0.77772   0.26192   0.19713  -0.24295
N          N       0.73551   0.49257   0.17452  -0.09683
N          N       0.53571   0.26464   0.17232  -0.09919
N          N       0.76444   0.29966   0.18255  -0.09358
N          N       0.90662   0.82342   0.22199  -0.27403
N          N       0.19152   0.10488   0.23877  -0.20803
N          N       0.90458   0.10278   0.27100  -0.26392
N          N       0.94155   0.87202   0.23760  -0.09940
N          N       0.14015   0.08644   0.27546  -0.11288
N          N       0.91665   0.06447   0.27819  -0.10342
N          N       0.04944   0.49344   0.46507   0.29639
N          N       0.42629   0.54440   0.40754   0.29536
N          N       0.45886   0.95194   0.41579   0.29573
N          N       0.76865   0.52691   0.64310  -0.24141
N          N       0.48342   0.25223   0.60435  -0.25027
N          N       0.77144   0.25127   0.54587  -0.24076
N          N       0.73657   0.48372   0.60503  -0.08760
N          N       0.53397   0.26798   0.56444  -0.10173
N          N       0.76291   0.29252   0.53546  -0.10019
N          N       0.90649   0.80342   0.72450  -0.26553
N          N       0.18700   0.09297   0.76325  -0.22227
N          N       0.89258   0.08134   0.73067  -0.27130
N          N       0.94280   0.85221   0.73860  -0.10013
N          N       0.13482   0.07207   0.80421  -0.11772
N          N       0.90488   0.04201   0.75085  -0.10399
N          N       0.11005   0.55601   0.91249   0.29540
N          N       0.50613   0.54652   0.90231   0.29615
N          N       0.41991   0.86516   0.98844   0.29137
Cl         Cl      0.37836   0.82001   0.37611  -0.74710
Cl         Cl      0.17409   0.56919   0.22701  -0.73330
Cl         Cl      0.54493   0.60928   0.15656  -0.70654
Cl         Cl      0.40292   0.96096   0.70879  -0.71127
Cl         Cl      0.04932   0.42913   0.83229  -0.72285
Cl         Cl      0.44344   0.60594   0.66649  -0.71244
O          O       0.83337   0.58455   0.35035  -0.21449
O          O       0.41633   0.26918   0.26161  -0.21577
O          O       0.75189   0.16240   0.36219  -0.22607
O          O       0.85875   0.78512   0.02316  -0.45118
O          O       0.26446   0.09771   0.11295  -0.47666
O          O       0.93164   0.20785   0.06952  -0.42674
O          O       0.75263   0.59634   0.02655  -0.45216
O          O       0.45579   0.18435   0.08603  -0.46331
O          O       0.86644   0.32432   0.10790  -0.44189
O          O       0.95972   0.78881   0.29244  -0.42108
O          O       0.22049   0.14988   0.38687  -0.49530
O          O       0.81662   0.04461   0.26753  -0.43252
O          O       0.82075   0.56091   0.83031  -0.21284
O          O       0.41750   0.24534   0.78099  -0.20556
O          O       0.74586   0.15864   0.75395  -0.22187
O          O       0.85418   0.76774   0.52449  -0.45711
O          O       0.25359   0.10368   0.58223  -0.47292
O          O       0.91494   0.17286   0.49836  -0.44833
O          O       0.73337   0.57789   0.53734  -0.44438
O          O       0.44636   0.19460   0.48567  -0.44761
O          O       0.86211   0.30704   0.48480  -0.44259
O          O       0.95610   0.76372   0.78531  -0.42186
O          O       0.21961   0.13069   0.92426  -0.49620
O          O       0.80251   0.01987   0.75649  -0.41627

