data_crystal

_audit_creation_method 'AiiDA-DDEC plugin'

_cell_length_a        30.06888
_cell_length_b        28.98514
_cell_length_c        13.30788

_cell_angle_alpha     89.88852
_cell_angle_beta     90.45339
_cell_angle_gamma     120.05125

_symmetry_space_group_name_Hall 'P 1'
_symmetry_space_group_name_H-M  'P 1'

loop_
_symmetry_equiv_pos_as_xyz
 'x,y,z'

loop_
_atom_site_label
_atom_site_type_symbol
_atom_site_fract_x
_atom_site_fract_y
_atom_site_fract_z
_atom_site_charge
H          H       0.20395   0.05840   0.44735   0.24715
H          H       0.94633   0.14862   0.51537   0.24002
H          H       0.86160   0.80300   0.44281   0.25007
H          H       0.25871   0.10855   0.28365   0.13546
H          H       0.90596   0.15577   0.30379   0.13200
H          H       0.85103   0.74358   0.26136   0.13830
H          H       0.41425   0.19056   0.50116   0.12851
H          H       0.79439   0.20173   0.50048   0.12105
H          H       0.78056   0.58744   0.48880   0.12825
H          H       0.11560  -0.00016   0.88774   0.08279
H          H       0.01774   0.13521   0.76537   0.08943
H          H       0.88530   0.89994   0.84771   0.08486
H          H       0.08110   0.10599   0.82590   0.12171
H          H       0.91834   0.99419   0.82027   0.12452
H          H       0.02486   0.93967   0.88836   0.12000
H          H       0.46259   0.24072   0.33282   0.24879
H          H       0.75178   0.20489   0.33584   0.25604
H          H       0.78130   0.53552   0.32861   0.25112
H          H       0.54017   0.30600   0.31314   0.08321
H          H       0.68366   0.21596   0.31291   0.08531
H          H       0.76887   0.45425   0.31454   0.08782
H          H       0.62312   0.38157   0.30501   0.11949
H          H       0.60910   0.22594   0.30424   0.12412
H          H       0.75909   0.36715   0.30698   0.12052
H          H       0.36042   0.18848   0.62379   0.36128
H          H       0.79416   0.14273   0.61831   0.36440
H          H       0.83530   0.64768   0.60760   0.36439
H          H       0.27744   0.08237   0.11106   0.06898
H          H       0.91259   0.18847   0.13223   0.08371
H          H       0.80111   0.72582   0.10518   0.06918
H          H       0.27593   0.04395   0.21646   0.06577
H          H       0.95748   0.22900   0.22646   0.06092
H          H       0.76307   0.72076   0.21059   0.06543
H          H       0.33669   0.02246   0.14042   0.10795
H          H       0.97597   0.31096   0.13867   0.09446
H          H       0.68417   0.65521   0.12432   0.10862
H          H       0.35263   0.07026   0.04560   0.10471
H          H       0.92574   0.27607   0.05216   0.10364
H          H       0.71886   0.64723   0.02678   0.10243
H          H       0.24110   0.97934   0.06337   0.09767
H          H       0.01008   0.24665   0.06804   0.10416
H          H       0.72976   0.75682   0.06749   0.09803
H          H       0.28360   0.01738   0.43780   0.06952
H          H       0.96827   0.27915   0.40445   0.09058
H          H       0.73148   0.71227   0.40519   0.07119
H          H       0.27846   0.92659   0.04649   0.10924
H          H       0.06385   0.33894   0.04390   0.10566
H          H       0.64377   0.71313   0.02460   0.10945
H          H       0.33396   0.96299   0.45622   0.09830
H          H       0.02431   0.37439   0.36715   0.10767
H          H       0.63056   0.65944   0.44197   0.09842
H          H       0.24483   0.84689   0.30456   0.15490
H          H       0.09357   0.40787   0.26995   0.14652
H          H       0.59641   0.74618   0.29776   0.15600
H          H       0.24259   0.84329   0.44147   0.15554
H          H       0.14245   0.39091   0.28236   0.16460
H          H       0.60307   0.75211   0.43422   0.15504
H          H       0.30344   0.87539   0.37831   0.13215
H          H       0.13354   0.42959   0.38052   0.13503
H          H       0.57035   0.68736   0.37573   0.13230
H          H       0.19033   0.88810   0.96323   0.15612
H          H       0.09639   0.27930   0.97620   0.15914
H          H       0.68785   0.80552   0.95414   0.15773
H          H       0.18939   0.88106   0.31603   0.15416
H          H       0.13472   0.32826   0.41598   0.16463
H          H       0.68444   0.80464   0.29076   0.15607
H          H       0.20287   0.94724   0.89462   0.11860
H          H       0.03818   0.23245   0.90879   0.14091
H          H       0.74204   0.80360   0.90166   0.12233
H          H       0.64892   0.72252   0.20318   0.14856
H          H       0.26547   0.92870   0.22251   0.14766
H          H       0.08449   0.30474   0.25364   0.15954
H          H       0.61875   0.65993   0.27168   0.13596
H          H       0.32781   0.95556   0.28357   0.13457
H          H       0.02707   0.30830   0.25540   0.12933
H          H       0.68723   0.69883   0.26879   0.11743
H          H       0.29290   0.98999   0.29685   0.11653
H          H       0.03348   0.26479   0.34323   0.14550
H          H       0.20068   0.05490   0.89080   0.24334
H          H       0.95542   0.16244   0.76746   0.23836
H          H       0.85497   0.81195   0.86134   0.24499
H          H       0.26610   0.10098   0.74978   0.12879
H          H       0.90962   0.19042   0.70302   0.12089
H          H       0.83942   0.74520   0.73415   0.12752
H          H       0.40768   0.18114   0.00008   0.13140
H          H       0.82136   0.22866   0.97501   0.12511
H          H       0.77122   0.59728   0.98052   0.13145
H          H       0.12103  -0.00056   0.47466   0.08334
H          H       0.00939   0.12688   0.53707   0.09313
H          H       0.88959   0.88899   0.48238   0.08569
H          H       0.07706   0.10033   0.51983   0.12635
H          H       0.91689   0.98014   0.50891   0.11975
H          H       0.03270   0.93492   0.47874   0.12077
H          H       0.45738   0.23148   0.83063   0.25162
H          H       0.76458   0.23039   0.82293   0.25172
H          H       0.76843   0.54341   0.81570   0.25167
H          H       0.53170   0.30287   0.80580   0.08446
H          H       0.69123   0.23209   0.80957   0.08611
H          H       0.75930   0.46510   0.79913   0.08529
H          H       0.61300   0.38425   0.79544   0.12267
H          H       0.61088   0.23436   0.80751   0.12042
H          H       0.75530   0.38193   0.79674   0.11857
H          H       0.34257   0.17188   0.10958   0.34550
H          H       0.82881   0.16836   0.06440   0.36020
H          H       0.82651   0.66262   0.09296   0.34179
H          H       0.29586   0.08479   0.58922   0.05365
H          H       0.90773   0.23157   0.55625   0.05890
H          H       0.79363   0.71155   0.56308   0.05207
H          H       0.27886   0.03709   0.68645   0.06674
H          H       0.95748   0.26399   0.64526   0.06340
H          H       0.76330   0.72797   0.65952   0.07075
H          H       0.33918   0.01008   0.62512   0.10915
H          H       0.97784   0.35242   0.57927   0.09531
H          H       0.67802   0.66037   0.60124   0.10658
H          H       0.36255   0.05990   0.53198   0.10564
H          H       0.92835   0.32223   0.48780   0.11169
H          H       0.70370   0.63633   0.51045   0.10483
H          H       0.24762   0.97695   0.54098   0.09398
H          H       0.00509   0.28312   0.51067   0.09216
H          H       0.73350   0.75388   0.50573   0.09319
H          H       0.27281   0.02122   0.95968   0.06944
H          H       0.96831   0.23770   0.96663   0.08410
H          H       0.74967   0.73511   0.96194   0.07258
H          H       0.27979   0.91990   0.53508   0.10993
H          H       0.05613   0.38574   0.48490   0.09803
H          H       0.64600   0.71739   0.51866   0.10930
H          H       0.33170   0.97524   0.97221   0.10240
H          H       0.01779   0.34450   0.96379   0.10545
H          H       0.64706   0.66248   0.95073   0.09920
H          H       0.24902   0.86041   0.81042   0.15588
H          H       0.12873   0.36421   0.81340   0.14174
H          H       0.61780   0.74281   0.77892   0.15438
H          H       0.24649   0.85334   0.94708   0.15584
H          H       0.13372   0.37211   0.94937   0.16370
H          H       0.60299   0.73831   0.91267   0.15551
H          H       0.30745   0.89067   0.88472   0.13242
H          H       0.10073   0.39847   0.87529   0.13623
H          H       0.59086   0.67964   0.84337   0.13211
H          H       0.19209   0.88531   0.45400   0.15679
H          H       0.12526   0.36798   0.50703   0.13675
H          H       0.69434   0.80625   0.42752   0.15784
H          H       0.18938   0.88857   0.82530   0.15871
H          H       0.09596   0.27193   0.84073   0.14799
H          H       0.69953   0.81216   0.81820   0.15718
H          H       0.20779   0.94296   0.37824   0.12154
H          H       0.07927   0.29795   0.49578   0.14840
H          H       0.73001   0.78845   0.34333   0.12589
H          H       0.69013   0.73804   0.72375   0.14546
H          H       0.26598   0.94226   0.73618   0.14639
H          H       0.04367   0.29442   0.73839   0.13866
H          H       0.66333   0.67263   0.78210   0.13559
H          H       0.32783   0.97313   0.80088   0.13592
H          H       0.02309   0.33875   0.78879   0.13853
H          H       0.72732   0.72288   0.81284   0.11130
H          H       0.28723   0.00106   0.81543   0.11413
H          H       0.98925   0.26911   0.81721   0.13111
C          C       0.65171   0.70048   0.26876  -0.33454
C          C       0.28940   0.95081   0.28828  -0.33406
C          C       0.05383   0.30239   0.30224  -0.32182
C          C       0.24145   0.14122   0.46433   0.45767
C          C       0.86984   0.09483   0.46667   0.46246
C          C       0.90547   0.76549   0.43548   0.46169
C          C       0.28986   0.14336   0.42857  -0.11410
C          C       0.86162   0.14033   0.43730  -0.08941
C          C       0.85723   0.71480   0.40685  -0.11202
C          C       0.29257   0.12530   0.33213  -0.23419
C          C       0.88240   0.16714   0.34680  -0.23862
C          C       0.83464   0.70964   0.31209  -0.22915
C          C       0.33860   0.13077   0.29605   0.20056
C          C       0.87155   0.20579   0.31017   0.20721
C          C       0.79304   0.66103   0.28015   0.20116
C          C       0.38298   0.15496   0.35688  -0.11069
C          C       0.83910   0.21805   0.36598  -0.12547
C          C       0.77425   0.61621   0.34306  -0.11241
C          C       0.38028   0.17317   0.45280  -0.25574
C          C       0.81787   0.19068   0.45587  -0.25957
C          C       0.79658   0.62163   0.43848  -0.25968
C          C       0.33436   0.16749   0.48954   0.27829
C          C       0.82892   0.15219   0.49230   0.26950
C          C       0.83721   0.67053   0.47150   0.27839
C          C       0.43259   0.15897   0.32345   0.46201
C          C       0.82960   0.26218   0.33488   0.46379
C          C       0.72971   0.56300   0.31222   0.46380
C          C       0.11087   0.03486   0.87844  -0.00837
C          C       0.98780   0.09809   0.79918  -0.01521
C          C       0.92404   0.90622   0.86179  -0.00928
C          C       0.05878   0.02442   0.86008   0.07492
C          C       0.99839   0.05475   0.81981   0.08456
C          C       0.96698   0.96069   0.85467   0.07494
C          C       0.04886   0.06561   0.83340  -0.16308
C          C       0.95746   0.00201   0.83083  -0.16109
C          C       0.01798   0.97217   0.86943  -0.16469
C          C       0.55411   0.27751   0.30812  -0.01135
C          C       0.71016   0.25924   0.31080  -0.01685
C          C       0.72731   0.43889   0.30791  -0.01490
C          C       0.60976   0.30075   0.30348   0.07794
C          C       0.68698   0.29307   0.30491   0.07867
C          C       0.69451   0.38099   0.30435   0.07822
C          C       0.64046   0.35639   0.30372  -0.16333
C          C       0.63334   0.26916   0.30341  -0.16604
C          C       0.71744   0.34919   0.30510  -0.16021
C          C       0.30032   0.06970   0.15580   0.02366
C          C       0.92946   0.22723   0.17075   0.01382
C          C       0.76623   0.69859   0.14679   0.02341
C          C       0.32063   0.04110   0.09145  -0.18566
C          C       0.95519   0.27324   0.09675  -0.17875
C          C       0.71903   0.67661   0.07899  -0.18914
C          C       0.27780  -0.00019   0.02306  -0.16726
C          C       0.99145   0.26541   0.02695  -0.16836
C          C       0.71952   0.72218   0.01897  -0.16433
C          C       0.29067   0.95772   0.98837  -0.12070
C          C       0.03325   0.31888   0.98663  -0.11468
C          C       0.66698   0.70474   0.97182  -0.11677
C          C       0.26356   0.86663   0.37561  -0.30739
C          C       0.11499   0.39792   0.32427  -0.32507
C          C       0.60114   0.72882   0.36777  -0.30857
C          C       0.20654   0.91157   0.89445  -0.30547
C          C       0.07377   0.27094   0.90633  -0.30210
C          C       0.70235   0.79400   0.88873  -0.30649
C          C       0.68907   0.71559   0.79191  -0.33648
C          C       0.28786   0.96404   0.80410  -0.33579
C          C       0.02709   0.30376   0.80293  -0.32780
C          C       0.24036   0.13734   0.91148   0.46081
C          C       0.88826   0.12354   0.86145   0.44936
C          C       0.89488   0.77314   0.90616   0.45461
C          C       0.28912   0.13597   0.89699  -0.11637
C          C       0.87826   0.16905   0.85127  -0.10710
C          C       0.84692   0.72135   0.88349  -0.11564
C          C       0.29654   0.11614   0.80619  -0.24791
C          C       0.89146   0.20000   0.76346  -0.24816
C          C       0.82268   0.71329   0.78918  -0.24816
C          C       0.34339   0.11917   0.78454   0.19602
C          C       0.88081   0.24152   0.75109   0.19986
C          C       0.77991   0.66422   0.76349   0.19770
C          C       0.38406   0.14373   0.85454  -0.11993
C          C       0.85411   0.25093   0.82744  -0.11994
C          C       0.76122   0.62228   0.83350  -0.12189
C          C       0.37644   0.16302   0.94529  -0.25373
C          C       0.84074   0.22021   0.91495  -0.27580
C          C       0.78584   0.62993   0.92667  -0.25415
C          C       0.32921   0.15878   0.96849   0.27828
C          C       0.85321   0.18012   0.92913   0.27464
C          C       0.82832   0.67918   0.95323   0.28099
C          C       0.43639   0.15166   0.83190   0.46571
C          C       0.83994   0.29341   0.81548   0.46778
C          C       0.71539   0.56887   0.80887   0.46684
C          C       0.11418   0.03295   0.48614  -0.00641
C          C       0.98017   0.08547   0.52070  -0.01811
C          C       0.92911   0.89612   0.48091  -0.00756
C          C       0.06083   0.01930   0.49970   0.07336
C          C       0.99510   0.04455   0.51714   0.08320
C          C       0.97030   0.95102   0.49523   0.07532
C          C       0.04691   0.05872   0.51444  -0.16174
C          C       0.95702   0.99037   0.50823  -0.15852
C          C       0.02261   0.96568   0.49113  -0.16585
C          C       0.54983   0.27801   0.80555  -0.01584
C          C       0.71413   0.27582   0.80728  -0.01841
C          C       0.71731   0.44755   0.79620  -0.01338
C          C       0.60573   0.30586   0.79997   0.07843
C          C       0.68643   0.30510   0.80121   0.07970
C          C       0.68717   0.38958   0.79479   0.07651
C          C       0.63298   0.36161   0.79594  -0.16605
C          C       0.63273   0.27766   0.80259  -0.16395
C          C       0.71347   0.36122   0.79687  -0.16171
C          C       0.31020   0.06393   0.63664   0.02581
C          C       0.92874   0.26816   0.60110   0.02070
C          C       0.75946   0.69559   0.61084   0.02823
C          C       0.32803   0.03255   0.57432  -0.17874
C          C       0.95581   0.31643   0.53318  -0.17153
C          C       0.71020   0.67263   0.54926  -0.17755
C          C       0.28491   0.99458   0.50271  -0.17338
C          C       0.99123   0.30556   0.46623  -0.18620
C          C       0.71189   0.71352   0.47359  -0.17182
C          C       0.29351   0.94896   0.47291  -0.11703
C          C       0.03639   0.35604   0.42541  -0.09313
C          C       0.65733   0.70207   0.45367  -0.12221
C          C       0.26673   0.87898   0.88284  -0.31220
C          C       0.10996   0.36652   0.88181  -0.32155
C          C       0.61568   0.72287   0.85058  -0.31202
C          C       0.20852   0.90568   0.38255  -0.30063
C          C       0.10610   0.33427   0.45506  -0.30827
C          C       0.69350   0.78719   0.35560  -0.30555
N          N       0.19893   0.09001   0.46371  -0.25379
N          N       0.92018   0.11003   0.49234  -0.24042
N          N       0.89812   0.80885   0.44703  -0.25355
N          N       0.14941   0.08300   0.88401  -0.09950
N          N       0.94356   0.09078   0.82660  -0.09578
N          N       0.93197   0.86722   0.88211  -0.09854
N          N       0.47215   0.21189   0.32068  -0.24443
N          N       0.77709   0.24487   0.32813  -0.24690
N          N       0.74338   0.52348   0.31552  -0.24424
N          N       0.52257   0.22652   0.30941  -0.09956
N          N       0.75952   0.27960   0.31656  -0.09845
N          N       0.70858   0.47059   0.30549  -0.09935
N          N       0.26376   0.91864   0.38005   0.29320
N          N       0.07753   0.34734   0.37721   0.28584
N          N       0.65150   0.72960   0.36157   0.29494
N          N       0.19663   0.08787   0.89535  -0.25330
N          N       0.93290   0.13077   0.81421  -0.24885
N          N       0.89020   0.81744   0.88171  -0.25178
N          N       0.15114   0.08198   0.48366  -0.10162
N          N       0.93294   0.07125   0.49884  -0.09923
N          N       0.93907   0.85828   0.46463  -0.09740
N          N       0.47150   0.20605   0.82257  -0.25040
N          N       0.78657   0.27107   0.81887  -0.24642
N          N       0.73010   0.53035   0.80581  -0.24828
N          N       0.52296   0.22654   0.81243  -0.09659
N          N       0.76386   0.30117   0.81096  -0.09352
N          N       0.69633   0.47716   0.79763  -0.09861
N          N       0.26293   0.92871   0.89274   0.29699
N          N       0.06056   0.31445   0.89391   0.29140
N          N       0.66922   0.73439   0.87609   0.29768
Cl         Cl      0.63580   0.77942   0.11194  -0.72752
Cl         Cl      0.20778   0.85852   0.13148  -0.72197
Cl         Cl      0.13870   0.34619   0.11927  -0.72459
Cl         Cl      0.67606   0.79219   0.62093  -0.72687
Cl         Cl      0.20922   0.87239   0.63905  -0.72682
Cl         Cl      0.00857   0.21278   0.61891  -0.68320
O          O       0.24021   0.18104   0.48996  -0.41853
O          O       0.83460   0.04866   0.45985  -0.42545
O          O       0.94686   0.76752   0.44502  -0.41190
O          O       0.43747   0.12042   0.30480  -0.43461
O          O       0.86362   0.30826   0.32018  -0.44227
O          O       0.68695   0.55535   0.29000  -0.43681
O          O       0.33070   0.18319   0.58470  -0.42441
O          O       0.81070   0.12644   0.58196  -0.42203
O          O       0.85802   0.67797   0.56601  -0.42579
O          O       0.34421   0.11639   0.20007  -0.22457
O          O       0.88950   0.23218   0.22051  -0.21540
O          O       0.77124   0.65423   0.18534  -0.22768
O          O       0.23982   0.17828   0.93075  -0.41753
O          O       0.86021   0.08362   0.91024  -0.42281
O          O       0.93406   0.77597   0.94010  -0.41188
O          O       0.44673   0.11602   0.82413  -0.43334
O          O       0.87056   0.34090   0.80503  -0.43508
O          O       0.67161   0.56043   0.79529  -0.43907
O          O       0.32113   0.17608   0.05860  -0.43704
O          O       0.84201   0.15240   0.01762  -0.41135
O          O       0.85184   0.68742   0.04493  -0.42805
O          O       0.35363   0.10225   0.69590  -0.21677
O          O       0.89367   0.27315   0.66752  -0.20051
O          O       0.75598   0.65233   0.67130  -0.21982

