data_crystal

_audit_creation_method 'AiiDA-DDEC plugin'

_cell_length_a        29.39783
_cell_length_b        29.20575
_cell_length_c        10.95798

_cell_angle_alpha     89.63592
_cell_angle_beta     89.90677
_cell_angle_gamma     120.41759

_symmetry_space_group_name_Hall 'P 1'
_symmetry_space_group_name_H-M  'P 1'

loop_
_symmetry_equiv_pos_as_xyz
 'x,y,z'

loop_
_atom_site_label
_atom_site_type_symbol
_atom_site_fract_x
_atom_site_fract_y
_atom_site_fract_z
_atom_site_charge
H          H       0.20817   0.08046   0.07649   0.23562
H          H       0.92526   0.13420   0.05196   0.23613
H          H       0.87473   0.79479   0.05430   0.23505
H          H       0.25462   0.09708   0.29200   0.11278
H          H       0.90650   0.15996   0.26011   0.11455
H          H       0.83984   0.74768   0.25472   0.11185
H          H       0.41329   0.23896   0.08072   0.12049
H          H       0.76478   0.17836   0.06287   0.12064
H          H       0.83892   0.59170   0.07655   0.12100
H          H       0.12450   0.01203   0.51171   0.08049
H          H       0.99034   0.11715   0.51578   0.08033
H          H       0.88414   0.87739   0.49949   0.08037
H          H       0.06540   0.10244   0.01667   0.11866
H          H       0.90592   0.96989   0.00845   0.11886
H          H       0.03657   0.94228   0.02592   0.11624
H          H       0.46193   0.25633   0.29019   0.24470
H          H       0.74651   0.20433   0.28054   0.25085
H          H       0.80058   0.54157   0.27706   0.24668
H          H       0.54405   0.32157   0.32985   0.08327
H          H       0.68063   0.21968   0.33075   0.08384
H          H       0.78279   0.45944   0.32893   0.08459
H          H       0.63394   0.39545   0.32581   0.12191
H          H       0.60663   0.23582   0.32885   0.12139
H          H       0.76577   0.36932   0.33006   0.12127
H          H       0.34789   0.25764   0.48697   0.37329
H          H       0.73465   0.08433   0.50163   0.37322
H          H       0.88920   0.64676   0.43968   0.36720
H          H       0.27683   0.03210   0.33433   0.06613
H          H       0.96952   0.24612   0.32146   0.06742
H          H       0.75479   0.72409   0.30072   0.06783
H          H       0.28026   0.07141   0.46279   0.05766
H          H       0.92580   0.20471   0.44008   0.05781
H          H       0.78995   0.71753   0.42675   0.05996
H          H       0.34542   0.05182   0.05909   0.10124
H          H       0.94112   0.28624   0.05423   0.09693
H          H       0.71140   0.65375   0.06665   0.10028
H          H       0.35372   0.02585   0.43362   0.09118
H          H       0.96994   0.32515   0.43501   0.09481
H          H       0.67050   0.64406   0.39328   0.09001
H          H       0.30081   0.93883   0.39718   0.07215
H          H       0.06073   0.36810   0.41883   0.07468
H          H       0.63553   0.69544   0.37140   0.07081
H          H       0.24438   0.94363   0.36001   0.05681
H          H       0.05270   0.30984   0.34766   0.05740
H          H       0.69656   0.75318   0.33275   0.05722
H          H       0.20582   0.88898   0.05777   0.10307
H          H       0.10171   0.30492   0.03682   0.10496
H          H       0.70148   0.80126   0.04259   0.10498
H          H       0.25786   0.87481   0.06089   0.10900
H          H       0.11916   0.37073   0.07633   0.10409
H          H       0.63457   0.75294   0.07432   0.10286
H          H       0.17789   0.87208   0.28631   0.11087
H          H       0.11870   0.31410   0.26018   0.10592
H          H       0.68468   0.81376   0.25917   0.10627
H          H       0.13203   0.84135   0.41081   0.14516
H          H       0.14052   0.28191   0.36564   0.13869
H          H       0.70717   0.86128   0.38077   0.14131
H          H       0.13993   0.79975   0.29956   0.16450
H          H       0.18907   0.33798   0.27388   0.16057
H          H       0.65352   0.85332   0.28251   0.16381
H          H       0.25713   0.86336   0.27823   0.11418
H          H       0.13886   0.40544   0.30275   0.11902
H          H       0.59507   0.73305   0.27597   0.11493
H          H       0.21357   0.79172   0.29492   0.16151
H          H       0.20821   0.42409   0.31110   0.16423
H          H       0.56979   0.77818   0.29552   0.16275
H          H       0.26879   0.82862   0.39865   0.14320
H          H       0.17648   0.43860   0.43605   0.14764
H          H       0.55520   0.72545   0.40722   0.14308
H          H       0.23723   0.38090   0.43934   0.17192
H          H       0.60048   0.84208   0.44632   0.17287
H          H       0.15326   0.75363   0.45024   0.17281
H          H       0.19550   0.33797   0.04362   0.13762
H          H       0.67757   0.86728   0.04213   0.13683
H          H       0.14578   0.79668   0.06790   0.13729
H          H       0.20983   0.40405   0.07096   0.13819
H          H       0.60955   0.81917   0.07194   0.13793
H          H       0.19880   0.78363   0.06664   0.13620
H          H       0.20583   0.07766   0.57048   0.23584
H          H       0.92291   0.13108   0.56757   0.23665
H          H       0.86482   0.79406   0.54955   0.23862
H          H       0.25067   0.09288   0.78989   0.11449
H          H       0.90817   0.16098   0.76851   0.11195
H          H       0.84209   0.74615   0.77602   0.11576
H          H       0.40693   0.23388   0.56829   0.11822
H          H       0.75932   0.16784   0.57596   0.11965
H          H       0.81158   0.58715   0.54629   0.12033
H          H       0.12715   0.01612   0.02410   0.07840
H          H       0.99127   0.11900   0.00751   0.07978
H          H       0.88916   0.87740   0.00784   0.08060
H          H       0.06389   0.09880   0.52097   0.11778
H          H       0.90359   0.96861   0.50458   0.11786
H          H       0.03234   0.93780   0.50450   0.11938
H          H       0.45792   0.25038   0.76703   0.24419
H          H       0.74479   0.20336   0.76599   0.24669
H          H       0.79124   0.53957   0.76291   0.25207
H          H       0.53918   0.31532   0.80296   0.08250
H          H       0.67942   0.21825   0.80296   0.08227
H          H       0.77662   0.45755   0.79865   0.08453
H          H       0.62755   0.38996   0.80019   0.12090
H          H       0.60456   0.23190   0.79603   0.12141
H          H       0.76202   0.36810   0.79855   0.12118
H          H       0.35477   0.26171   0.99106   0.37306
H          H       0.74215   0.09824   0.96831   0.37150
H          H       0.92288   0.65371  -0.00022   0.37698
H          H       0.27274   0.02731   0.83688   0.06692
H          H       0.97230   0.24898   0.82325   0.06686
H          H       0.75665   0.72230   0.83352   0.06517
H          H       0.28147   0.07004   0.96210   0.05908
H          H       0.92606   0.20899   0.93978   0.05659
H          H       0.79293   0.71904   0.96132   0.05467
H          H       0.34271   0.05252   0.56813   0.10010
H          H       0.94183   0.28116   0.56140   0.09635
H          H       0.70783   0.65147   0.52683   0.09988
H          H       0.35490   0.02541   0.92217   0.09134
H          H       0.97052   0.32929   0.92671   0.09491
H          H       0.67360   0.64348   0.93274   0.09298
H          H       0.30396   0.93694   0.89249   0.07243
H          H       0.06144   0.37350   0.91928   0.07532
H          H       0.63453   0.69460   0.91324   0.07442
H          H       0.24757   0.94169   0.85665   0.05616
H          H       0.05388   0.31538   0.84819   0.05659
H          H       0.69595   0.74589   0.85393   0.05752
H          H       0.20016   0.88862   0.55577   0.10533
H          H       0.10054   0.29930   0.53678   0.10484
H          H       0.68904   0.79464   0.53273   0.10752
H          H       0.25413   0.87760   0.56822   0.10238
H          H       0.11896   0.36552   0.57464   0.10507
H          H       0.62438   0.73918   0.55192   0.10958
H          H       0.18273   0.87341   0.78087   0.10938
H          H       0.11947   0.31798   0.76333   0.10771
H          H       0.68971   0.80614   0.76077   0.10973
H          H       0.13713   0.84853   0.90733   0.14068
H          H       0.14382   0.28874   0.87051   0.13958
H          H       0.72390   0.85949   0.86720   0.13747
H          H       0.13912   0.80192   0.80006   0.16379
H          H       0.19038   0.34459   0.77559   0.16044
H          H       0.67023   0.85603   0.77593   0.16355
H          H       0.25827   0.85793   0.78020   0.11484
H          H       0.13709   0.40905   0.79939   0.12039
H          H       0.59809   0.73699   0.80387   0.11941
H          H       0.20887   0.78725   0.79422   0.16075
H          H       0.20691   0.42958   0.80749   0.16322
H          H       0.58326   0.79054   0.81068   0.16568
H          H       0.26359   0.81909   0.90114   0.14437
H          H       0.17480   0.44454   0.93066   0.14652
H          H       0.56508   0.74291   0.93596   0.14854
H          H       0.23866   0.39097   0.93976   0.17281
H          H       0.62678   0.86164   0.93938   0.17322
H          H       0.14789   0.75374   0.95233   0.17164
H          H       0.19222   0.32838   0.54218   0.13610
H          H       0.65148   0.85090   0.55128   0.13809
H          H       0.14712   0.79259   0.56989   0.13847
H          H       0.21037   0.39575   0.57116   0.13814
H          H       0.58737   0.79365   0.56527   0.13670
H          H       0.20427   0.78619   0.56359   0.13668
C          C       0.23869   0.83000   0.34268  -0.32094
C          C       0.17095   0.41094   0.36283  -0.31485
C          C       0.58418   0.75386   0.34206  -0.31875
C          C       0.23124   0.15611   0.14194   0.46931
C          C       0.84817   0.07904   0.10703   0.46895
C          C       0.92868   0.77562   0.12795   0.46801
C          C       0.20386   0.37529   0.00033  -0.33085
C          C       0.63947   0.84012   0.00061  -0.33167
C          C       0.17125   0.78882   0.00978  -0.32526
C          C       0.28431   0.16153   0.16263  -0.11505
C          C       0.84220   0.12619   0.13279  -0.11599
C          C       0.88222   0.72076   0.14491  -0.11263
C          C       0.28966   0.12751   0.24502  -0.25535
C          C       0.87587   0.16468   0.21679  -0.25465
C          C       0.83893   0.71324   0.21498  -0.25481
C          C       0.33911   0.13363   0.27004   0.20763
C          C       0.86880   0.20697   0.24867   0.20884
C          C       0.79624   0.66242   0.23813   0.20968
C          C       0.38406   0.17455   0.21041  -0.11140
C          C       0.82802   0.21146   0.19289  -0.11023
C          C       0.79620   0.61816   0.18722  -0.11419
C          C       0.37847   0.20829   0.12831  -0.26521
C          C       0.79505   0.17350   0.10821  -0.26333
C          C       0.83949   0.62590   0.11731  -0.26710
C          C       0.32898   0.20209   0.10271   0.27470
C          C       0.80149   0.13061   0.07751   0.27690
C          C       0.88280   0.67680   0.09541   0.28017
C          C       0.43723   0.17992   0.22850   0.46583
C          C       0.82220   0.25869   0.21875   0.46520
C          C       0.74889   0.56368   0.20410   0.46383
C          C       0.11333   0.04438   0.03766  -0.01782
C          C       0.96314   0.07635   0.02012  -0.02102
C          C       0.93113   0.89257   0.02638  -0.01904
C          C       0.05440   0.02075   0.51063   0.08170
C          C       0.98146   0.03768   0.51090   0.08174
C          C       0.96405   0.94699   0.50246   0.08159
C          C       0.03557   0.05657   0.51259  -0.16714
C          C       0.94567   0.98267   0.50380  -0.16758
C          C       0.01877   0.96625   0.50365  -0.16706
C          C       0.55753   0.29296   0.31738  -0.01328
C          C       0.70888   0.26229   0.31736  -0.01410
C          C       0.74075   0.44546   0.31452  -0.01343
C          C       0.61400   0.31310   0.32907   0.07995
C          C       0.68876   0.29865   0.33031   0.07964
C          C       0.70371   0.38868   0.32921   0.07908
C          C       0.64874   0.36801   0.32953  -0.16253
C          C       0.63425   0.27843   0.33097  -0.16169
C          C       0.72344   0.35405   0.33176  -0.16112
C          C       0.30276   0.05847   0.40645  -0.00642
C          C       0.94071   0.24270   0.39073  -0.00911
C          C       0.75463   0.69620   0.36915  -0.00944
C          C       0.32380   0.02979   0.48541  -0.00937
C          C       0.96622   0.28946   0.47917  -0.00948
C          C       0.70449   0.67263   0.44738  -0.01059
C          C       0.26578   0.93800   0.43575  -0.00365
C          C       0.05872   0.32990   0.43599  -0.00558
C          C       0.67032   0.73035   0.40947  -0.00484
C          C       0.23391   0.88428   0.00091  -0.13376
C          C       0.10890   0.34308   0.00016  -0.13241
C          C       0.66415   0.77153   0.00143  -0.13616
C          C       0.15965   0.83816   0.34929  -0.32029
C          C       0.15024   0.31961   0.32190  -0.32558
C          C       0.67311   0.83342   0.32670  -0.32170
C          C       0.23633   0.82449   0.84319  -0.31736
C          C       0.16966   0.41614   0.85965  -0.31774
C          C       0.59383   0.76459   0.86329  -0.31538
C          C       0.22595   0.15176   0.64156   0.46826
C          C       0.84779   0.07434   0.63190   0.46716
C          C       0.91739   0.76979   0.60573   0.47020
C          C       0.20254   0.36650   0.49988  -0.33156
C          C       0.61674   0.82200   0.50106  -0.32509
C          C       0.17445   0.78865   0.50927  -0.32806
C          C       0.27930   0.15800   0.66196  -0.11232
C          C       0.83994   0.12051   0.65375  -0.11083
C          C       0.86954   0.71656   0.63170  -0.11669
C          C       0.28515   0.12329   0.74109  -0.25478
C          C       0.87571   0.16297   0.72665  -0.25543
C          C       0.83448   0.71109   0.72544  -0.25107
C          C       0.33473   0.12884   0.76039   0.21032
C          C       0.86926   0.20649   0.74811   0.21202
C          C       0.79202   0.66114   0.75733   0.21021
C          C       0.37876   0.16903   0.69658  -0.11162
C          C       0.82688   0.20816   0.69245  -0.11243
C          C       0.78420   0.61630   0.69219  -0.11180
C          C       0.37271   0.20367   0.61854  -0.26466
C          C       0.79115   0.16555   0.62087  -0.27071
C          C       0.81898   0.62201   0.59797  -0.26279
C          C       0.32331   0.19885   0.60065   0.27381
C          C       0.79670   0.12128   0.60149   0.27895
C          C       0.86190   0.67188   0.56699   0.27352
C          C       0.43171   0.17341   0.70884   0.46371
C          C       0.82119   0.25615   0.70508   0.46264
C          C       0.73697   0.56284   0.71948   0.46497
C          C       0.11036   0.03988   0.52760  -0.01910
C          C       0.96224   0.07447   0.52762  -0.02034
C          C       0.92602   0.89034   0.51226  -0.01844
C          C       0.05729   0.02482   0.02071   0.08146
C          C       0.98318   0.03986   0.01165   0.08113
C          C       0.96745   0.94962   0.01535   0.08124
C          C       0.03758   0.05987   0.01499  -0.16562
C          C       0.94811   0.98450   0.00996  -0.16607
C          C       0.02232   0.97008   0.01931  -0.16676
C          C       0.55313   0.28718   0.78883  -0.01282
C          C       0.70704   0.26090   0.78834  -0.01372
C          C       0.73410   0.44275   0.79114  -0.01679
C          C       0.60974   0.30830   0.79842   0.07877
C          C       0.68588   0.29635   0.79798   0.07885
C          C       0.69854   0.38548   0.79995   0.08106
C          C       0.64337   0.36335   0.80084  -0.16150
C          C       0.63120   0.27471   0.79847  -0.16272
C          C       0.71954   0.35192   0.79985  -0.16269
C          C       0.30151   0.05535   0.90268  -0.00546
C          C       0.94218   0.24639   0.88743  -0.00701
C          C       0.75738   0.69611   0.90532  -0.00546
C          C       0.32535   0.02831   0.97814  -0.01111
C          C       0.96637   0.29396   0.97377  -0.00956
C          C       0.70757   0.67341   0.98478  -0.01064
C          C       0.26912   0.93614   0.93201  -0.00418
C          C       0.05923   0.33521   0.93662  -0.00619
C          C       0.67237   0.72975   0.93809  -0.00553
C          C       0.23050   0.88569   0.50374  -0.13221
C          C       0.10840   0.33754   0.49914  -0.13521
C          C       0.65446   0.76413   0.48410  -0.13845
C          C       0.16214   0.84088   0.84672  -0.31883
C          C       0.15180   0.32550   0.82463  -0.32617
C          C       0.68609   0.83317   0.82338  -0.32774
N          N       0.19545   0.10661   0.09336  -0.24686
N          N       0.89885   0.09453   0.06400  -0.24771
N          N       0.91351   0.80992   0.07697  -0.24391
N          N       0.14443   0.09233   0.07435  -0.08994
N          N       0.91435   0.05845   0.04963  -0.08937
N          N       0.94869   0.86230   0.06341  -0.09106
N          N       0.47413   0.22976   0.27285  -0.24390
N          N       0.77245   0.24390   0.26577  -0.24805
N          N       0.76173   0.52850   0.25908  -0.25140
N          N       0.52562   0.24423   0.28671  -0.09251
N          N       0.75724   0.28020   0.28362  -0.09076
N          N       0.72441   0.47672   0.27710  -0.09217
N          N       0.20178   0.83711   0.42523   0.28804
N          N       0.15676   0.35825   0.42004   0.29064
N          N       0.63251   0.79246   0.41212   0.28593
N          N       0.19168   0.10249   0.58938  -0.24546
N          N       0.89804   0.09136   0.58321  -0.24869
N          N       0.90390   0.80626   0.56115  -0.24879
N          N       0.14069   0.08731   0.56821  -0.08995
N          N       0.91404   0.05611   0.56283  -0.08988
N          N       0.94154   0.85782   0.54422  -0.09071
N          N       0.46982   0.22376   0.74777  -0.24148
N          N       0.77098   0.24248   0.74674  -0.24785
N          N       0.75180   0.52619   0.75354  -0.24459
N          N       0.52142   0.23830   0.75884  -0.09372
N          N       0.75579   0.27907   0.75771  -0.09244
N          N       0.71579   0.47389   0.76821  -0.09047
N          N       0.20188   0.83606   0.92378   0.28381
N          N       0.15723   0.36462   0.92038   0.28801
N          N       0.64626   0.80141   0.92143   0.29187
Cl         Cl      0.58007   0.85495   0.23213  -0.70511
Cl         Cl      0.13353   0.72205   0.24525  -0.70767
Cl         Cl      0.27059   0.40765   0.23585  -0.70530
Cl         Cl      0.60565   0.87315   0.73502  -0.70888
Cl         Cl      0.12684   0.72191   0.74583  -0.70854
Cl         Cl      0.27116   0.41657   0.73537  -0.70133
O          O       0.22037   0.19018   0.16619  -0.41058
O          O       0.81366   0.03293   0.12371  -0.41172
O          O       0.97373   0.78919   0.15737  -0.41164
O          O       0.44693   0.14495   0.20381  -0.43068
O          O       0.85690   0.30448   0.19779  -0.42875
O          O       0.70431   0.55163   0.17282  -0.42614
O          O       0.32116   0.23219   0.01863  -0.41769
O          O       0.77111   0.09333   0.99324  -0.41505
O          O       0.92503   0.68667   0.02447  -0.41469
O          O       0.34784   0.10334   0.35220  -0.18628
O          O       0.89802   0.24482   0.33355  -0.18408
O          O       0.75385   0.65216   0.30993  -0.18872
O          O       0.28509   0.97699   0.02180  -0.24333
O          O       0.01636   0.30318   0.01839  -0.24607
O          O       0.69932   0.71543   0.02586  -0.24678
O          O       0.21378   0.18479   0.66675  -0.41198
O          O       0.81536   0.02802   0.65392  -0.40851
O          O       0.96255   0.78020   0.62360  -0.41092
O          O       0.44016   0.13747   0.68523  -0.43179
O          O       0.85593   0.30136   0.67934  -0.42765
O          O       0.69139   0.55281   0.70969  -0.43176
O          O       0.31484   0.23064   0.52338  -0.41445
O          O       0.76334   0.07958   0.53018  -0.41139
O          O       0.89670   0.68035   0.47465  -0.41714
O          O       0.34484   0.09867   0.83974  -0.18856
O          O       0.90095   0.24825   0.82202  -0.18661
O          O       0.75736   0.65161   0.85117  -0.18517
O          O       0.28149   0.97878   0.52556  -0.24481
O          O       0.01653   0.29816   0.51948  -0.24605
O          O       0.69617   0.71362   0.49432  -0.24109

