data_crystal

_audit_creation_method 'AiiDA-DDEC plugin'

_cell_length_a        35.88034
_cell_length_b        24.25666
_cell_length_c         9.65543

_cell_angle_alpha     89.70283
_cell_angle_beta     93.91308
_cell_angle_gamma     90.02115

_symmetry_space_group_name_Hall 'P 1'
_symmetry_space_group_name_H-M  'P 1'

loop_
_symmetry_equiv_pos_as_xyz
 'x,y,z'

loop_
_atom_site_label
_atom_site_type_symbol
_atom_site_fract_x
_atom_site_fract_y
_atom_site_fract_z
_atom_site_charge
H          H       0.43556   0.67433   0.09165   0.10253
H          H       0.56727   0.67321   0.40881   0.10489
H          H       0.37936   0.61668   0.07704   0.10709
H          H       0.62259   0.61402   0.42537   0.10798
H          H       0.43041   0.50895   0.39196   0.10848
H          H       0.57050   0.50741   0.11367   0.10835
H          H       0.48786   0.56381   0.39345   0.10215
H          H       0.51338   0.56355   0.11067   0.10321
H          H       0.32878   0.59124   0.15668   0.10495
H          H       0.67206   0.59206   0.32047   0.10516
H          H       0.27088   0.53852   0.16711   0.10728
H          H       0.73045   0.54004   0.30962   0.10697
H          H       0.33408   0.39728   0.31876   0.10568
H          H       0.66721   0.39339   0.20549   0.10415
H          H       0.39207   0.44977   0.30731   0.10428
H          H       0.60874   0.44541   0.21825   0.10468
H          H       0.23110   0.47469   0.09253   0.11020
H          H       0.77146   0.47832   0.39079   0.11052
H          H       0.17275   0.42202   0.11953   0.11399
H          H       0.83002   0.42635   0.36121   0.11460
H          H       0.22718   0.33080   0.45860   0.11018
H          H       0.77297   0.32853   0.04318   0.11049
H          H       0.28521   0.38328   0.43335   0.10798
H          H       0.71456   0.37968   0.07205   0.11111
H          H       0.16184   0.31801   0.40731   0.06968
H          H       0.83892   0.31640   0.09037   0.06888
H          H       0.02069   0.06076   0.38131   0.10668
H          H       0.98104   0.06128   0.11769   0.10708
H          H       0.07818   0.00709   0.36517   0.11499
H          H       0.92464   0.00538   0.13693   0.11418
H          H       0.11495   0.12161   0.06097   0.12097
H          H       0.88557   0.11948   0.43460   0.12048
H          H       0.05686   0.17630   0.08040   0.10011
H          H       0.94294   0.17585   0.41472   0.10115
H          H       0.06734   0.19924   0.40466   0.10327
H          H       0.93369   0.19935   0.09406   0.10212
H          H       0.12479   0.25270   0.39514   0.11473
H          H       0.87632   0.25302   0.10243   0.11493
H          H       0.07135   0.35710   0.07913   0.12048
H          H       0.92976   0.35675   0.41741   0.12111
H          H       0.01214   0.30496   0.09719   0.10527
H          H       0.98873   0.30344   0.40270   0.10404
H          H       0.26384   0.97768   0.09861   0.11171
H          H       0.73938   0.97459   0.39767   0.10956
H          H       0.20361   0.02585   0.11470   0.11268
H          H       0.80049   0.02066   0.38315   0.11235
H          H       0.17816   0.92017   0.45447   0.11082
H          H       0.82714   0.91089   0.05634   0.11137
H          H       0.23813   0.87245   0.44050   0.10626
H          H       0.76634   0.86542   0.06745   0.10765
H          H       0.13741   0.99642   0.39481   0.06875
H          H       0.86841   0.98696   0.11480   0.06986
H          H       0.47793   0.80005   0.08213   0.10788
H          H       0.52094   0.80633   0.38852   0.10880
H          H       0.41864   0.85080   0.08155   0.10738
H          H       0.58092   0.85515   0.39363   0.10775
H          H       0.38948   0.75810   0.44062   0.10782
H          H       0.61693   0.74686   0.07540   0.10911
H          H       0.44791   0.70514   0.43307   0.09731
H          H       0.55798   0.69599   0.08122   0.09815
H          H       0.38025   0.91060   0.15563   0.10688
H          H       0.62300   0.90726   0.33876   0.10617
H          H       0.32029   0.95811   0.15862   0.10601
H          H       0.68320   0.95391   0.33886   0.10722
H          H       0.27370   0.81654   0.35601   0.10618
H          H       0.73006   0.81164   0.14916   0.10501
H          H       0.33380   0.76967   0.35504   0.10560
H          H       0.67000   0.76510   0.14931   0.10529
H          H       0.43411   0.66057   0.57339   0.10260
H          H       0.56449   0.66661   0.90987   0.10334
H          H       0.37805   0.60297   0.57478   0.10920
H          H       0.62048   0.60877   0.91555   0.10773
H          H       0.42845   0.51039   0.92050   0.10706
H          H       0.56895   0.50947   0.58701   0.10570
H          H       0.48583   0.56531   0.90965   0.10343
H          H       0.51126   0.56340   0.59593   0.10212
H          H       0.32686   0.58584   0.68176   0.10562
H          H       0.67089   0.58784   0.82202   0.10377
H          H       0.26914   0.53181   0.69230   0.10760
H          H       0.72890   0.53525   0.80914   0.10682
H          H       0.33351   0.39227   0.84783   0.10615
H          H       0.66588   0.39608   0.64784   0.10610
H          H       0.39119   0.44609   0.83596   0.10529
H          H       0.60774   0.44802   0.66322   0.10442
H          H       0.23329   0.46342   0.59978   0.10978
H          H       0.76566   0.46835   0.89724   0.10847
H          H       0.17403   0.41236   0.62228   0.11242
H          H       0.82492   0.41700   0.87792   0.11324
H          H       0.22319   0.32816   0.98286   0.11348
H          H       0.77650   0.33327   0.51800   0.11214
H          H       0.28221   0.37867   0.96080   0.10989
H          H       0.71728   0.38393   0.53649   0.10659
H          H       0.15650   0.31852   0.92353   0.07049
H          H       0.84089   0.32040   0.58091   0.06865
H          H       0.01875   0.05876   0.88134   0.10795
H          H       0.97756   0.06160   0.60341   0.10713
H          H       0.07626   0.00492   0.86663   0.11380
H          H       0.92138   0.00500   0.62181   0.11387
H          H       0.11293   0.11738   0.55795   0.11964
H          H       0.88700   0.10960   0.94856   0.11991
H          H       0.05428   0.17159   0.57299   0.09913
H          H       0.94373   0.16741   0.92636   0.09920
H          H       0.06624   0.19127   0.89340   0.10409
H          H       0.93077   0.19381   0.60097   0.10424
H          H       0.12403   0.24459   0.88643   0.11455
H          H       0.87353   0.24839   0.61033   0.11394
H          H       0.06896   0.35765   0.59471   0.12233
H          H       0.92919   0.35569   0.91168   0.12231
H          H       0.00978   0.30495   0.60895   0.10445
H          H       0.98793   0.30248   0.89429   0.10300
H          H       0.26354   0.97861   0.61795   0.11371
H          H       0.73855   0.96433   0.90755   0.10885
H          H       0.20274   0.02638   0.63085   0.11465
H          H       0.79930   0.01189   0.89514   0.11123
H          H       0.17439   0.91606   0.95722   0.11102
H          H       0.82250   0.91450   0.54063   0.10991
H          H       0.23466   0.86811   0.94521   0.11089
H          H       0.76211   0.86717   0.55122   0.10651
H          H       0.13361   0.99205   0.89534   0.06964
H          H       0.86315   0.99019   0.60414   0.06996
H          H       0.47927   0.80611   0.61834   0.10713
H          H       0.51964   0.80047   0.89952   0.10468
H          H       0.42075   0.85808   0.61940   0.10907
H          H       0.57927   0.84983   0.89992   0.10850
H          H       0.37984   0.74097   0.91031   0.10766
H          H       0.61204   0.74683   0.56640   0.10680
H          H       0.43745   0.68771   0.90099   0.10111
H          H       0.55307   0.69546   0.57531   0.09703
H          H       0.38042   0.91221   0.70345   0.10600
H          H       0.61902   0.90715   0.81816   0.10596
H          H       0.32073   0.96099   0.70902   0.10719
H          H       0.67965   0.95347   0.81715   0.10708
H          H       0.26751   0.81046   0.82661   0.10542
H          H       0.72779   0.80677   0.65500   0.10701
H          H       0.32699   0.76143   0.81929   0.10437
H          H       0.66736   0.76017   0.65782   0.10534
C          C       0.46605   0.62401   0.24437   0.06496
C          C       0.53572   0.62320   0.25868   0.06707
C          C       0.44101   0.73671   0.35547  -0.12720
C          C       0.56320   0.73110   0.14890  -0.12258
C          C       0.43454   0.63778   0.15643  -0.12564
C          C       0.56744   0.63630   0.34609  -0.12591
C          C       0.36232   0.83644   0.25701   0.06023
C          C       0.64098   0.83260   0.24105   0.05846
C          C       0.40248   0.60556   0.15054  -0.13212
C          C       0.59921   0.60345   0.35263  -0.13236
C          C       0.35696   0.88955   0.19936  -0.13664
C          C       0.64633   0.88580   0.29700  -0.13225
C          C       0.39987   0.55821   0.23462   0.05790
C          C       0.60130   0.55618   0.26930   0.05676
C          C       0.32271   0.91651   0.20083  -0.12789
C          C       0.68070   0.91244   0.29695  -0.13056
C          C       0.43149   0.54418   0.32223  -0.13902
C          C       0.56955   0.54263   0.18257  -0.13746
C          C       0.29190   0.89180   0.25993   0.05429
C          C       0.71170   0.88734   0.24077   0.05399
C          C       0.46384   0.57583   0.32533  -0.13153
C          C       0.53748   0.57498   0.17879  -0.13274
C          C       0.29707   0.83809   0.31431  -0.13317
C          C       0.70658   0.83348   0.18864  -0.13093
C          C       0.36527   0.52532   0.23353   0.05874
C          C       0.63580   0.52322   0.26911   0.05975
C          C       0.33130   0.81134   0.31349  -0.13233
C          C       0.67230   0.80694   0.18877  -0.13505
C          C       0.33032   0.54846   0.19076  -0.13240
C          C       0.67087   0.54822   0.29771  -0.13235
C          C       0.29739   0.51851   0.19661  -0.13004
C          C       0.70391   0.51878   0.29056  -0.13019
C          C       0.29765   0.46381   0.24621   0.05642
C          C       0.70348   0.46277   0.25288   0.05825
C          C       0.33269   0.44007   0.28467  -0.13361
C          C       0.66838   0.43722   0.22874  -0.13395
C          C       0.36560   0.46995   0.27833  -0.13394
C          C       0.63531   0.46668   0.23648  -0.13324
C          C       0.26280   0.43271   0.26022   0.06214
C          C       0.73837   0.43231   0.23548   0.06005
C          C       0.23023   0.44372   0.17410  -0.13540
C          C       0.77177   0.44579   0.31378  -0.13531
C          C       0.19754   0.41421   0.18808  -0.10920
C          C       0.80453   0.41677   0.29846  -0.10993
C          C       0.19595   0.37270   0.29018   0.04912
C          C       0.80536   0.37333   0.20236   0.05024
C          C       0.22819   0.36194   0.37736  -0.12599
C          C       0.77242   0.36079   0.12101  -0.12728
C          C       0.26100   0.39120   0.36216  -0.14017
C          C       0.73947   0.38939   0.13804  -0.14068
C          C       0.16206   0.34121   0.30917   0.06659
C          C       0.83911   0.34126   0.18538   0.06848
C          C       0.03481   0.12371   0.23453   0.05869
C          C       0.96612   0.12353   0.26336   0.05973
C          C       0.03526   0.24720   0.25048   0.06416
C          C       0.96569   0.24692   0.24830   0.06255
C          C       0.04141   0.07468   0.31176  -0.11976
C          C       0.96022   0.07434   0.18737  -0.11998
C          C       0.07405   0.04432   0.30268  -0.17690
C          C       0.92816   0.04288   0.19771  -0.17484
C          C       0.10168   0.06190   0.21499   0.19980
C          C       0.90025   0.05961   0.28458   0.19988
C          C       0.09430   0.10926   0.13245  -0.15981
C          C       0.90660   0.10760   0.36440  -0.15635
C          C       0.06179   0.13941   0.14287  -0.12100
C          C       0.93872   0.13871   0.35356  -0.12290
C          C       0.06770   0.23446   0.33514  -0.11527
C          C       0.93331   0.23435   0.16344  -0.11413
C          C       0.10038   0.26471   0.32896  -0.16828
C          C       0.90069   0.26467   0.16900  -0.16746
C          C       0.10222   0.30956   0.23588   0.20028
C          C       0.89892   0.30965   0.26063   0.19819
C          C       0.06981   0.32307   0.15229  -0.15622
C          C       0.93123   0.32269   0.34515  -0.15513
C          C       0.03690   0.29336   0.16187  -0.12903
C          C       0.96400   0.29260   0.33715  -0.12855
C          C       0.25585   0.92072   0.26751   0.06058
C          C       0.74801   0.91552   0.23481   0.06172
C          C       0.24543   0.96515   0.17791  -0.13967
C          C       0.75820   0.96061   0.32149  -0.13618
C          C       0.21148   0.99209   0.18535  -0.10904
C          C       0.79253   0.98646   0.31498  -0.10929
C          C       0.18633   0.97599   0.28405   0.04834
C          C       0.81821   0.96881   0.22038   0.04694
C          C       0.19674   0.93230   0.37509  -0.12635
C          C       0.80818   0.92426   0.13289  -0.12477
C          C       0.23061   0.90514   0.36642  -0.13794
C          C       0.77388   0.89823   0.14033  -0.13872
C          C       0.15056   0.00358   0.29655   0.07163
C          C       0.85383   0.99666   0.20831   0.06706
C          C       0.46652   0.74695   0.25449   0.06763
C          C       0.53555   0.74627   0.23742   0.06360
C          C       0.45839   0.79044   0.16015  -0.13360
C          C       0.54216   0.79324   0.32045  -0.12785
C          C       0.00044   0.15660   0.24901  -0.02834
C          C       0.42497   0.81959   0.16098  -0.13385
C          C       0.57607   0.82111   0.32182  -0.13601
C          C       0.00050   0.21374   0.24935  -0.02613
C          C       0.39856   0.80752   0.25832   0.05461
C          C       0.60448   0.80445   0.23728   0.05517
C          C       0.50101   0.71375   0.24690  -0.03048
C          C       0.40792   0.76622   0.35804  -0.13452
C          C       0.59672   0.75941   0.14801  -0.13756
C          C       0.50099   0.65689   0.25016  -0.02991
C          C       0.46411   0.61837   0.74359   0.06419
C          C       0.53346   0.61994   0.75180   0.06800
C          C       0.43394   0.72513   0.83967  -0.12445
C          C       0.55910   0.72936   0.64611  -0.12763
C          C       0.43308   0.62767   0.64958  -0.12344
C          C       0.56514   0.63158   0.84071  -0.12743
C          C       0.35893   0.83289   0.76296   0.05648
C          C       0.63787   0.82986   0.73694   0.05934
C          C       0.40101   0.59562   0.65215  -0.13452
C          C       0.59724   0.59951   0.84106  -0.13184
C          C       0.35574   0.88935   0.72940  -0.13389
C          C       0.64283   0.88449   0.78373  -0.13446
C          C       0.39824   0.55287   0.75030   0.05576
C          C       0.59976   0.55474   0.74956   0.05639
C          C       0.32184   0.91710   0.73272  -0.13070
C          C       0.67736   0.91084   0.78311  -0.13053
C          C       0.42972   0.54244   0.84180  -0.13479
C          C       0.56790   0.54267   0.66177  -0.13447
C          C       0.28936   0.88985   0.77062   0.05597
C          C       0.70881   0.88410   0.73480   0.05718
C          C       0.46201   0.57392   0.83705  -0.13073
C          C       0.53545   0.57381   0.66474  -0.13096
C          C       0.29235   0.83317   0.80172  -0.13100
C          C       0.70393   0.82932   0.68934  -0.13382
C          C       0.36369   0.52031   0.75740   0.05849
C          C       0.63446   0.52244   0.74366   0.05786
C          C       0.32615   0.80545   0.79754  -0.13412
C          C       0.66952   0.80292   0.69077  -0.13493
C          C       0.32855   0.54311   0.71627  -0.13433
C          C       0.66943   0.54543   0.78608  -0.13189
C          C       0.29587   0.51253   0.72236  -0.13154
C          C       0.70235   0.51564   0.77870  -0.13193
C          C       0.29674   0.45768   0.77105   0.05819
C          C       0.70207   0.46140   0.72748   0.05910
C          C       0.33185   0.43496   0.81292  -0.13368
C          C       0.66715   0.43832   0.68515  -0.13399
C          C       0.36450   0.46549   0.80623  -0.13300
C          C       0.63419   0.46795   0.69357  -0.13199
C          C       0.26213   0.42542   0.77977   0.06240
C          C       0.73701   0.43013   0.71797   0.06126
C          C       0.23097   0.43442   0.68500  -0.13898
C          C       0.76809   0.43925   0.81298  -0.13659
C          C       0.19788   0.40562   0.69614  -0.11151
C          C       0.80118   0.41034   0.80365  -0.11013
C          C       0.19441   0.36704   0.80415   0.05021
C          C       0.80462   0.37153   0.69720   0.04864
C          C       0.22554   0.35729   0.89772  -0.12823
C          C       0.77379   0.36235   0.60219  -0.12792
C          C       0.25890   0.38553   0.88469  -0.14165
C          C       0.74046   0.39070   0.61309  -0.13825
C          C       0.15937   0.33805   0.82165   0.07146
C          C       0.83900   0.34092   0.68161   0.07150
C          C       0.03273   0.12030   0.73089   0.06208
C          C       0.96440   0.11978   0.76127   0.06449
C          C       0.03350   0.24342   0.75054   0.06025
C          C       0.96383   0.24340   0.74786   0.06094
C          C       0.03943   0.07198   0.81081  -0.12220
C          C       0.95759   0.07259   0.67846  -0.12309
C          C       0.07211   0.04179   0.80297  -0.17365
C          C       0.92569   0.04067   0.68879  -0.17442
C          C       0.09970   0.05899   0.71474   0.19675
C          C       0.89909   0.05462   0.78395   0.19794
C          C       0.09216   0.10546   0.62937  -0.15470
C          C       0.90671   0.10020   0.87132  -0.15585
C          C       0.05944   0.13532   0.63765  -0.12278
C          C       0.93847   0.13209   0.85936  -0.12363
C          C       0.06632   0.22832   0.83012  -0.11597
C          C       0.93090   0.22984   0.66718  -0.11663
C          C       0.09911   0.25840   0.82558  -0.17280
C          C       0.89847   0.26064   0.67300  -0.17209
C          C       0.10058   0.30570   0.74031   0.20429
C          C       0.89741   0.30669   0.76154   0.20267
C          C       0.06781   0.32161   0.66177  -0.16226
C          C       0.93020   0.32079   0.84175  -0.15954
C          C       0.03492   0.29172   0.66917  -0.12829
C          C       0.96280   0.29051   0.83249  -0.12867
C          C       0.25350   0.91894   0.77872   0.05983
C          C       0.74540   0.91189   0.73032   0.05928
C          C       0.24418   0.96492   0.69296  -0.14180
C          C       0.75658   0.95371   0.82563  -0.13871
C          C       0.21012   0.99159   0.69878  -0.11099
C          C       0.79079   0.98020   0.82020  -0.10849
C          C       0.18406   0.97373   0.79222   0.04927
C          C       0.81531   0.96646   0.71773   0.05009
C          C       0.19364   0.92895   0.88080  -0.12437
C          C       0.80435   0.92477   0.62258  -0.12643
C          C       0.22754   0.90174   0.87325  -0.14007
C          C       0.77028   0.89780   0.62935  -0.13752
C          C       0.14797   0.00067   0.80048   0.06791
C          C       0.85066   0.99530   0.70423   0.06708
C          C       0.46290   0.74204   0.75790   0.06179
C          C       0.53236   0.74277   0.73998   0.06444
C          C       0.45750   0.79172   0.68281  -0.12912
C          C       0.53997   0.78840   0.82680  -0.13038
C          C       0.99852   0.15321   0.74631  -0.03102
C          C       0.42428   0.82139   0.68432  -0.13712
C          C       0.57376   0.81672   0.82578  -0.13505
C          C       0.99861   0.21029   0.74788  -0.02611
C          C       0.39488   0.80328   0.76285   0.05584
C          C       0.60129   0.80161   0.73570   0.05408
C          C       0.49773   0.70972   0.74875  -0.02985
C          C       0.40099   0.75483   0.84252  -0.13665
C          C       0.59259   0.75787   0.64329  -0.13373
C          C       0.49846   0.65281   0.74773  -0.02888
N          N       0.13413   0.34144   0.21675  -0.30274
N          N       0.86720   0.34226   0.27702  -0.30358
N          N       0.13598   0.03556   0.19964  -0.30488
N          N       0.86643   0.03202   0.30014  -0.30627
N          N       0.13297   0.33661   0.72342  -0.30013
N          N       0.86556   0.33870   0.77908  -0.30080
N          N       0.13443   0.03339   0.70328  -0.30474
N          N       0.86548   0.02649   0.80170  -0.30434

