data_crystal

_audit_creation_method 'AiiDA-DDEC plugin'

_cell_length_a        29.58548
_cell_length_b        29.48869
_cell_length_c         9.93902

_cell_angle_alpha     90.13605
_cell_angle_beta     89.36898
_cell_angle_gamma     120.42283

_symmetry_space_group_name_Hall 'P 1'
_symmetry_space_group_name_H-M  'P 1'

loop_
_symmetry_equiv_pos_as_xyz
 'x,y,z'

loop_
_atom_site_label
_atom_site_type_symbol
_atom_site_fract_x
_atom_site_fract_y
_atom_site_fract_z
_atom_site_charge
H          H       0.36275   0.09544   0.41065   0.14901
H          H       0.90229   0.26465   0.42107   0.14998
H          H       0.73604   0.63530   0.43700   0.14998
H          H       0.28427   0.19712   0.24111   0.12688
H          H       0.80005   0.08357   0.24598   0.12990
H          H       0.91175   0.71403   0.22528   0.12802
H          H       0.34474   0.27904   0.21266   0.07609
H          H       0.71778   0.06405   0.21254   0.07871
H          H       0.93212   0.65318   0.20010   0.07742
H          H       0.33431   0.24218   0.06122   0.08449
H          H       0.75580   0.08962   0.06128   0.08755
H          H       0.90323   0.65923   0.04882   0.08561
H          H       0.41912   0.30323   0.47291   0.13699
H          H       0.69307   0.11424   0.47575   0.13552
H          H       0.87983   0.57292   0.48014   0.13578
H          H       0.44092   0.33772   0.13213   0.13990
H          H       0.66329   0.10505   0.13646   0.13700
H          H       0.89292   0.55484   0.13967   0.13832
H          H       0.26091   0.98633   0.50882   0.08943
H          H       0.00931   0.27671   0.49652   0.09019
H          H       0.72563   0.73338   0.49941   0.08841
H          H       0.28331   0.01467   0.34588   0.08943
H          H       0.98228   0.26150   0.33171   0.08941
H          H       0.74158   0.71994   0.33621   0.08788
H          H       0.19203   0.99605   0.29292   0.13480
H          H       0.00385   0.18795   0.32002   0.13165
H          H       0.81623   0.81628   0.32264   0.13479
H          H       0.17084   0.97012   0.45746   0.13544
H          H       0.03372   0.20744   0.47989   0.13039
H          H       0.79371   0.82764   0.47849   0.12821
H          H       0.45963   0.25600   0.25921   0.24129
H          H       0.74348   0.19991   0.26435   0.23864
H          H       0.79807   0.53914   0.27703   0.23843
H          H       0.54515   0.32331   0.26996   0.08400
H          H       0.67498   0.21578   0.26589   0.08441
H          H       0.78187   0.45398   0.28848   0.08340
H          H       0.60312   0.23419   0.26899   0.12047
H          H       0.76254   0.36324   0.28961   0.11965
H          H       0.63467   0.39384   0.28355   0.11878
H          H       0.20331   0.08060   0.05278   0.25571
H          H       0.92548   0.13474   0.03391   0.24861
H          H       0.86858   0.79461   0.02887   0.25224
H          H       0.12342   0.01805   0.13974   0.08458
H          H       0.98393   0.11356   0.12720   0.07793
H          H       0.88489   0.87240   0.11924   0.08014
H          H       0.06218   0.09658   0.09604   0.11797
H          H       0.90134   0.97041   0.08264   0.12193
H          H       0.02632   0.93552   0.09012   0.12276
H          H       0.36115   0.09649   0.93285   0.15057
H          H       0.90347   0.26934   0.90794   0.15021
H          H       0.73340   0.63651   0.92449   0.15113
H          H       0.28325   0.19605   0.74588   0.12536
H          H       0.80304   0.08767   0.73581   0.12703
H          H       0.91147   0.71724   0.72588   0.12631
H          H       0.34313   0.27726   0.71305   0.07678
H          H       0.71991   0.06657   0.71624   0.07747
H          H       0.93321   0.65710   0.70010   0.07874
H          H       0.33272   0.23815   0.56580   0.08595
H          H       0.75560   0.08920   0.56068   0.08556
H          H       0.90430   0.66351   0.54924   0.08534
H          H       0.42085   0.30811   0.97137   0.13624
H          H       0.69450   0.11665   0.97626   0.13811
H          H       0.88141   0.57055   0.97580   0.13648
H          H       0.43894   0.33509   0.63121   0.13940
H          H       0.66305   0.10434   0.63727   0.13797
H          H       0.89712   0.56046   0.64097   0.13681
H          H       0.25803   0.98512   0.00588   0.08880
H          H       0.01228   0.27833   0.99410   0.09104
H          H       0.72407   0.73941   0.98098   0.09066
H          H       0.27728   0.01521   0.84369   0.08823
H          H       0.98455   0.26692   0.83035   0.08908
H          H       0.73767   0.72045   0.82210   0.08734
H          H       0.18478   0.99719   0.80836   0.13361
H          H       0.00194   0.19101   0.80254   0.13522
H          H       0.81267   0.81362   0.78505   0.13398
H          H       0.16689   0.96874   0.97146   0.13486
H          H       0.02971   0.20440   0.96551   0.13282
H          H       0.80061   0.83096   0.94725   0.13490
H          H       0.45827   0.25542   0.76418   0.24032
H          H       0.74473   0.20306   0.74794   0.23854
H          H       0.79700   0.54153   0.75935   0.23870
H          H       0.54386   0.32361   0.76488   0.08319
H          H       0.67588   0.21848   0.74848   0.08318
H          H       0.78071   0.45678   0.75597   0.08314
H          H       0.60349   0.23584   0.75844   0.12039
H          H       0.76248   0.36643   0.75623   0.11967
H          H       0.63319   0.39492   0.76754   0.11947
H          H       0.20651   0.08037   0.54917   0.25675
H          H       0.92818   0.13255   0.52894   0.24570
H          H       0.87290   0.79403   0.52998   0.24990
H          H       0.12670   0.01742   0.63632   0.08149
H          H       0.98688   0.11245   0.61786   0.07788
H          H       0.88849   0.87139   0.61359   0.07813
H          H       0.06459   0.09569   0.59414   0.11850
H          H       0.90427   0.96852   0.57821   0.12018
H          H       0.03025   0.93515   0.58652   0.12092
C          C       0.27093   0.13031   0.35384  -0.10148
C          C       0.86673   0.13713   0.35727  -0.09771
C          C       0.86116   0.72798   0.34928  -0.09802
C          C       0.29278   0.10107   0.40314   0.19659
C          C       0.89650   0.18878   0.40619   0.19098
C          C       0.81126   0.70597   0.40993   0.19121
C          C       0.34536   0.11816   0.37624  -0.19301
C          C       0.87977   0.22455   0.38383  -0.19176
C          C       0.77533   0.65263   0.39387  -0.18701
C          C       0.37804   0.16482   0.30563  -0.11142
C          C       0.83354   0.21083   0.31503  -0.11008
C          C       0.78778   0.61922   0.32311  -0.11500
C          C       0.35623   0.19502   0.25951   0.20691
C          C       0.80385   0.15898   0.26422   0.20701
C          C       0.83830   0.64131   0.26316   0.20890
C          C       0.30313   0.17675   0.28128  -0.23234
C          C       0.82087   0.12335   0.28536  -0.22883
C          C       0.87357   0.69510   0.27472  -0.22985
C          C       0.36391   0.26852   0.13343   0.05222
C          C       0.73024   0.09433   0.13405   0.05295
C          C       0.90108   0.63171   0.12644   0.05142
C          C       0.40738   0.31790   0.06446  -0.34161
C          C       0.68265   0.09139   0.06601  -0.34168
C          C       0.90587   0.58665   0.06531  -0.34062
C          C       0.38964   0.35696   0.03134   0.41671
C          C       0.64252   0.03530   0.02566   0.41702
C          C       0.96265   0.60446   0.02831   0.41586
C          C       0.43432   0.40516   0.46679   0.26887
C          C       0.59306   0.02864   0.46350   0.26670
C          C       0.97021   0.56279   0.46896   0.27039
C          C       0.42422   0.45180   0.44313   0.22258
C          C       0.54590   0.97160   0.44052   0.22286
C          C       0.02846   0.57718   0.44342   0.21940
C          C       0.47433   0.50422   0.39621   0.59754
C          C       0.49514   0.96988   0.38880   0.59774
C          C       0.03517   0.53064   0.39053   0.59885
C          C       0.25459   0.00698   0.42631   0.05247
C          C       0.99059   0.24549   0.42142   0.05431
C          C       0.75728   0.74503   0.42516   0.05002
C          C       0.19813   0.97508   0.37535  -0.35262
C          C       0.02496   0.22169   0.38747  -0.35290
C          C       0.78153   0.80334   0.38757  -0.35060
C          C       0.18424   0.92075   0.32564   0.41756
C          C       0.07683   0.26075   0.32091   0.41781
C          C       0.74263   0.81283   0.31225   0.41708
C          C       0.12441   0.88499   0.29677   0.26824
C          C       0.11192   0.23628   0.28981   0.26790
C          C       0.76239   0.87228   0.28540   0.26858
C          C       0.10633   0.82869   0.24015   0.22343
C          C       0.16770   0.27452   0.22797   0.21806
C          C       0.72108   0.88583   0.23122   0.22273
C          C       0.04590   0.79350   0.21508   0.59281
C          C       0.20183   0.24882   0.20018   0.59566
C          C       0.74411   0.94650   0.20727   0.59495
C          C       0.43344   0.17625   0.28733   0.45335
C          C       0.82155   0.25459   0.30513   0.44951
C          C       0.74395   0.56284   0.31854   0.45231
C          C       0.55663   0.29321   0.27215  -0.01618
C          C       0.70417   0.25775   0.27676  -0.01732
C          C       0.73996   0.44128   0.29286  -0.01400
C          C       0.61261   0.31168   0.27628   0.07869
C          C       0.68520   0.29482   0.27907   0.07909
C          C       0.70257   0.38489   0.28773   0.07806
C          C       0.63138   0.27615   0.27430  -0.16231
C          C       0.72078   0.34947   0.28597  -0.16298
C          C       0.64819   0.36568   0.28271  -0.16121
C          C       0.21406   0.11393   0.36039   0.44608
C          C       0.88012   0.09442   0.36696   0.43896
C          C       0.90231   0.78530   0.34809   0.44202
C          C       0.10638   0.03657   0.07887   0.02966
C          C       0.96250   0.07583   0.07414   0.01781
C          C       0.92250   0.89094   0.06431   0.02193
C          C       0.05039   0.01841   0.09428   0.08352
C          C       0.97943   0.03735   0.09144   0.08234
C          C       0.96002   0.94683   0.08643   0.08303
C          C       0.03313   0.05479   0.09606  -0.16290
C          C       0.94283   0.98323   0.08854  -0.15826
C          C       0.01380   0.96445   0.09235  -0.15901
C          C       0.26926   0.12993   0.86184  -0.09891
C          C       0.86884   0.14171   0.84971  -0.09971
C          C       0.85899   0.73041   0.84425  -0.09750
C          C       0.29091   0.10114   0.91523   0.19392
C          C       0.89774   0.19338   0.89841   0.19253
C          C       0.80833   0.70773   0.90027   0.19313
C          C       0.34396   0.11879   0.89389  -0.18947
C          C       0.88106   0.22898   0.87237  -0.19028
C          C       0.77307   0.65429   0.88365  -0.18707
C          C       0.37726   0.16519   0.82279  -0.11095
C          C       0.83496   0.21463   0.80213  -0.11099
C          C       0.78671   0.62131   0.81527  -0.11373
C          C       0.35528   0.19440   0.77036   0.20630
C          C       0.80552   0.16231   0.75443   0.20705
C          C       0.83794   0.64416   0.75935   0.20878
C          C       0.30203   0.17612   0.78918  -0.23189
C          C       0.82323   0.12727   0.77620  -0.22833
C          C       0.87274   0.69804   0.77219  -0.23122
C          C       0.36232   0.26575   0.63619   0.05292
C          C       0.73094   0.09512   0.63381   0.05103
C          C       0.90220   0.63577   0.62617   0.05085
C          C       0.40546   0.31419   0.56375  -0.34240
C          C       0.68237   0.09030   0.56781  -0.34208
C          C       0.90695   0.59089   0.56430  -0.34181
C          C       0.38765   0.35261   0.52421   0.41764
C          C       0.64263   0.03357   0.53286   0.41616
C          C       0.96247   0.60943   0.51425   0.41582
C          C       0.43561   0.40953   0.97061   0.26928
C          C       0.59037   0.02998   0.97137   0.27103
C          C       0.96962   0.55814   0.97532   0.27263
C          C       0.42540   0.45640   0.95136   0.22436
C          C       0.54373   0.97287   0.94407   0.22191
C          C       0.02756   0.57274   0.94112   0.22124
C          C       0.47317   0.50685   0.88598   0.59719
C          C       0.49311   0.97086   0.88906   0.59580
C          C       0.03528   0.52757   0.88270   0.59857
C          C       0.25031   0.00684   0.92905   0.05158
C          C       0.99171   0.24846   0.91683   0.05185
C          C       0.75493   0.74755   0.90693   0.04974
C          C       0.19282   0.97539   0.88462  -0.35152
C          C       0.02337   0.22229   0.87634  -0.35506
C          C       0.78205   0.80521   0.86064  -0.35498
C          C       0.17897   0.92220   0.82656   0.41615
C          C       0.07662   0.26152   0.81686   0.41690
C          C       0.74283   0.81846   0.80218   0.41907
C          C       0.11888   0.88585   0.79744   0.27096
C          C       0.11285   0.23763   0.79348   0.26977
C          C       0.76591   0.87898   0.77821   0.26863
C          C       0.10232   0.82987   0.74105   0.22065
C          C       0.16995   0.27774   0.74242   0.22006
C          C       0.72594   0.89620   0.73517   0.22116
C          C       0.04216   0.79272   0.71714   0.59283
C          C       0.20678   0.25427   0.72347   0.59662
C          C       0.74960   0.95706   0.72221   0.59520
C          C       0.43310   0.17705   0.81014   0.44990
C          C       0.82284   0.25824   0.78705   0.45058
C          C       0.74308   0.56479   0.80853   0.45116
C          C       0.55570   0.29380   0.76883  -0.01426
C          C       0.70501   0.26064   0.75544  -0.01435
C          C       0.73877   0.44366   0.76517  -0.01549
C          C       0.61193   0.31291   0.76352   0.07949
C          C       0.68545   0.29729   0.75671   0.07866
C          C       0.70176   0.38709   0.76174   0.07803
C          C       0.63140   0.27796   0.75911  -0.16274
C          C       0.72057   0.35215   0.75768  -0.16226
C          C       0.64716   0.36714   0.76422  -0.16187
C          C       0.21229   0.11354   0.86320   0.44487
C          C       0.88373   0.10016   0.86040   0.44391
C          C       0.89956   0.78790   0.84712   0.44402
C          C       0.10952   0.03632   0.57751   0.02970
C          C       0.96476   0.07395   0.56873   0.01631
C          C       0.92630   0.88993   0.55973   0.02788
C          C       0.05350   0.01777   0.59234   0.08231
C          C       0.98207   0.03594   0.58738   0.08194
C          C       0.96350   0.94575   0.58222   0.08111
C          C       0.03582   0.05382   0.59353  -0.16051
C          C       0.94584   0.98173   0.58437  -0.15729
C          C       0.01733   0.96375   0.58898  -0.15899
N          N       0.47130   0.22903   0.27263  -0.23944
N          N       0.76908   0.23857   0.28655  -0.23862
N          N       0.75976   0.52606   0.30270  -0.24018
N          N       0.52268   0.24339   0.27362  -0.08983
N          N       0.75376   0.27479   0.28843  -0.08984
N          N       0.72326   0.47412   0.30193  -0.09136
N          N       0.18463   0.08757   0.97663  -0.23039
N          N       0.91145   0.10234   0.97331  -0.23509
N          N       0.89841   0.81411   0.96041  -0.22877
N          N       0.13264   0.07180   0.98804  -0.10697
N          N       0.92554   0.06530   0.98995  -0.09748
N          N       0.93421   0.86623   0.97577  -0.10196
N          N       0.47053   0.22937   0.78502  -0.23986
N          N       0.77041   0.24207   0.76624  -0.23791
N          N       0.75853   0.52821   0.78373  -0.23881
N          N       0.52207   0.24405   0.78033  -0.09258
N          N       0.75477   0.27808   0.76530  -0.09125
N          N       0.72200   0.47625   0.78102  -0.08943
N          N       0.18757   0.08810   0.47522  -0.22992
N          N       0.91282   0.09943   0.47065  -0.22987
N          N       0.90197   0.81281   0.45927  -0.23188
N          N       0.13563   0.07217   0.48815  -0.10566
N          N       0.92652   0.06223   0.48777  -0.09726
N          N       0.93817   0.86495   0.47241  -0.10460
O          O       0.38885   0.24191   0.19284  -0.22215
O          O       0.75867   0.14612   0.19413  -0.21903
O          O       0.85040   0.60796   0.19366  -0.21874
O          O       0.26251   0.05626   0.48045  -0.24036
O          O       0.94173   0.20403   0.48018  -0.23825
O          O       0.79710   0.73673   0.48608  -0.24222
O          O       0.44406   0.14114   0.29354  -0.43866
O          O       0.85576   0.30069   0.32051  -0.43862
O          O       0.69810   0.55092   0.33558  -0.43709
O          O       0.19341   0.12354   0.26569  -0.48306
O          O       0.86226   0.05774   0.28639  -0.46887
O          O       0.93340   0.80480   0.25277  -0.47589
O          O       0.38771   0.24045   0.70019  -0.21923
O          O       0.75965   0.14810   0.68658  -0.21650
O          O       0.85143   0.61132   0.69284  -0.21746
O          O       0.26000   0.05575   0.99045  -0.24336
O          O       0.94215   0.20868   0.97563  -0.24036
O          O       0.79289   0.73802   0.97339  -0.24181
O          O       0.44428   0.14274   0.82763  -0.43723
O          O       0.85710   0.30448   0.80016  -0.43849
O          O       0.69732   0.55258   0.82951  -0.43939
O          O       0.19297   0.12339   0.76589  -0.48081
O          O       0.87093   0.06637   0.77278  -0.46905
O          O       0.93113   0.80881   0.75328  -0.47532
F          F       0.37107   0.36886   0.14557  -0.17683
F          F       0.63085   0.00197   0.13343  -0.17517
F          F       0.99352   0.62462   0.14000  -0.17935
F          F       0.34903   0.33110   0.42733  -0.18075
F          F       0.66460   0.01324   0.44603  -0.17605
F          F       0.97538   0.64418   0.40751  -0.18084
F          F       0.44911   0.39332   0.34632  -0.15991
F          F       0.60899   0.05351   0.34055  -0.16252
F          F       0.94214   0.54214   0.35322  -0.15859
F          F       0.47788   0.42661   0.05340  -0.13954
F          F       0.57328   0.05347   0.06079  -0.13822
F          F       0.94908   0.51979   0.07243  -0.13986
F          F       0.38676   0.43784   0.34732  -0.12866
F          F       0.56009   0.94679   0.34755  -0.12990
F          F       0.05114   0.61763   0.35303  -0.12728
F          F       0.41556   0.47112   0.07328  -0.14170
F          F       0.52901   0.94441   0.06064  -0.14197
F          F       0.05766   0.59107   0.05341  -0.13789
F          F       0.49125   0.49785   0.27438  -0.19091
F          F       0.50637   0.00194   0.28071  -0.18954
F          F       0.01547   0.51555   0.26612  -0.19190
F          F       0.51341   0.52005   0.48618  -0.18001
F          F       0.47328   0.98459   0.48675  -0.18201
F          F       0.01097   0.48869   0.47387  -0.18069
F          F       0.46194   0.54234   0.38634  -0.17988
F          F       0.46001   0.91996   0.35301  -0.17959
F          F       0.08690   0.54686   0.38644  -0.18168
F          F       0.19793   0.89561   0.41934  -0.16880
F          F       0.10439   0.30445   0.40016  -0.16778
F          F       0.69542   0.79095   0.38014  -0.16683
F          F       0.21132   0.92461   0.20734  -0.18811
F          F       0.06847   0.27798   0.19931  -0.18868
F          F       0.73310   0.78871   0.18700  -0.19180
F          F       0.09755   0.87990   0.41367  -0.14760
F          F       0.11780   0.21550   0.40657  -0.14278
F          F       0.78236   0.90011   0.40100  -0.14179
F          F       0.11114   0.91131   0.20584  -0.15491
F          F       0.08457   0.19565   0.20036  -0.15722
F          F       0.80262   0.88896   0.19284  -0.15799
F          F       0.13105   0.83338   0.11992  -0.14758
F          F       0.16221   0.29351   0.10786  -0.14676
F          F       0.70227   0.86008   0.11263  -0.14567
F          F       0.11999   0.80215   0.32734  -0.13224
F          F       0.19542   0.31552   0.31352  -0.13156
F          F       0.68013   0.86906   0.32008  -0.13356
F          F       0.03759   0.74865   0.15360  -0.19291
F          F       0.24860   0.28629   0.14649  -0.19382
F          F       0.71091   0.95329   0.12743  -0.19332
F          F       0.02880   0.81780   0.13342  -0.15923
F          F       0.17794   0.20877   0.11296  -0.16277
F          F       0.79121   0.96892   0.14594  -0.15662
F          F       0.01811   0.78014   0.33227  -0.18183
F          F       0.21138   0.23114   0.31508  -0.17519
F          F       0.74866   0.97100   0.32622  -0.18445
F          F       0.36663   0.36437   0.63352  -0.17278
F          F       0.62699   0.00254   0.64636  -0.17706
F          F       0.99793   0.63584   0.61419  -0.16786
F          F       0.34904   0.33558   0.94011  -0.18049
F          F       0.66269   0.01778   0.92588  -0.18020
F          F       0.98188   0.64419   0.93302  -0.17841
F          F       0.44880   0.39762   0.84744  -0.16214
F          F       0.60263   0.05806   0.85298  -0.16231
F          F       0.94008   0.53807   0.86084  -0.16046
F          F       0.47548   0.42208   0.55351  -0.14012
F          F       0.57554   0.05554   0.54011  -0.13912
F          F       0.94892   0.52457   0.56655  -0.14205
F          F       0.38241   0.44013   0.87267  -0.12924
F          F       0.55984   0.94895   0.85355  -0.12779
F          F       0.04684   0.61154   0.84611  -0.13412
F          F       0.40674   0.46235   0.56000  -0.14031
F          F       0.53314   0.94430   0.55907  -0.14010
F          F       0.05551   0.59329   0.56073  -0.14123
F          F       0.48667   0.49555   0.76583  -0.19225
F          F       0.50428   0.00213   0.77982  -0.18721
F          F       0.00621   0.50636   0.77202  -0.18878
F          F       0.51541   0.52668   0.96696  -0.18025
F          F       0.47117   0.98644   0.98555  -0.18143
F          F       0.02229   0.48896   0.97414  -0.18024
F          F       0.45981   0.54407   0.86704  -0.18111
F          F       0.45820   0.92061   0.85370  -0.18075
F          F       0.08653   0.54879   0.84732  -0.18325
F          F       0.19349   0.89566   0.91332  -0.16871
F          F       0.10214   0.30446   0.89992  -0.16713
F          F       0.69991   0.80004   0.88666  -0.16749
F          F       0.20650   0.92895   0.70692  -0.18953
F          F       0.07094   0.27997   0.69356  -0.18985
F          F       0.72445   0.79331   0.67982  -0.18912
F          F       0.09126   0.88001   0.91367  -0.14681
F          F       0.11552   0.21561   0.91195  -0.14638
F          F       0.78902   0.90461   0.89453  -0.14356
F          F       0.10468   0.91129   0.70611  -0.15330
F          F       0.08894   0.19790   0.70015  -0.15484
F          F       0.80437   0.89522   0.68031  -0.15239
F          F       0.12674   0.83554   0.61989  -0.14775
F          F       0.16684   0.29774   0.62101  -0.14584
F          F       0.70634   0.87513   0.61250  -0.14605
F          F       0.11769   0.80439   0.82712  -0.13247
F          F       0.19344   0.31777   0.83297  -0.13061
F          F       0.68593   0.87789   0.82693  -0.13335
F          F       0.03536   0.74663   0.66699  -0.19393
F          F       0.25549   0.29344   0.68652  -0.19182
F          F       0.71315   0.96654   0.66727  -0.19427
F          F       0.02432   0.81347   0.62643  -0.15977
F          F       0.18876   0.21749   0.62643  -0.16568
F          F       0.79166   0.97814   0.63985  -0.15573
F          F       0.01377   0.78219   0.83270  -0.17945
F          F       0.21115   0.23330   0.83991  -0.18040
F          F       0.76227   0.98006   0.84484  -0.18250

