data_crystal

_audit_creation_method 'AiiDA-DDEC plugin'

_cell_length_a        37.06897
_cell_length_b        37.20008
_cell_length_c         9.95669

_cell_angle_alpha     89.87792
_cell_angle_beta     89.47105
_cell_angle_gamma     119.92692

_symmetry_space_group_name_Hall 'P 1'
_symmetry_space_group_name_H-M  'P 1'

loop_
_symmetry_equiv_pos_as_xyz
 'x,y,z'

loop_
_atom_site_label
_atom_site_type_symbol
_atom_site_fract_x
_atom_site_fract_y
_atom_site_fract_z
_atom_site_charge
H          H       0.45312   0.70011   0.49829   0.12237
H          H       0.30128   0.75291   0.45515   0.12302
H          H       0.25035   0.55207   0.44144   0.12299
H          H       0.54736   0.30265   0.02239   0.12307
H          H       0.69978   0.24889   0.02129   0.12297
H          H       0.75091   0.44997   0.03873   0.12311
H          H       0.58417   0.74885   0.43064   0.12238
H          H       0.25062   0.83462   0.46443   0.12275
H          H       0.16505   0.42183   0.49907   0.12274
H          H       0.41524   0.25194   0.06577   0.12325
H          H       0.74848   0.16550   0.01983   0.12253
H          H       0.83423   0.58180   0.03370   0.12258
H          H       0.59591   0.82117   0.44526   0.12515
H          H       0.17853   0.77312   0.48284   0.12430
H          H       0.22530   0.40960   0.52695   0.12455
H          H       0.40476   0.18003   0.05215   0.12564
H          H       0.82106   0.22623   0.00132   0.12510
H          H       0.77357   0.59318   0.00298   0.12480
H          H       0.46446   0.77256   0.50102   0.12372
H          H       0.22899   0.69132   0.46018   0.12460
H          H       0.31058   0.53944   0.46073   0.12405
H          H       0.53717   0.23062   0.02035   0.12380
H          H       0.77251   0.30971   0.01391   0.12505
H          H       0.68985   0.46146   0.02031   0.12408
H          H       0.41710   0.52704   0.07331   0.13447
H          H       0.47354   0.88817   0.05743   0.13716
H          H       0.10891   0.58468   0.06436   0.13576
H          H       0.58131   0.47293   0.42417   0.13454
H          H       0.52311   0.10900   0.43110   0.13319
H          H       0.88667   0.41683   0.45315   0.13706
H          H       0.66096   0.56130   0.22924   0.13925
H          H       0.43990   0.10139   0.25978   0.13718
H          H       0.89641   0.33869   0.24351   0.14075
H          H       0.33842   0.44280   0.27562   0.13562
H          H       0.55851   0.89823   0.24465   0.13702
H          H       0.10018   0.66029   0.25367   0.13735
H          H       0.60136   0.56680   0.30789   0.11424
H          H       0.43398   0.03537   0.32511   0.11390
H          H       0.96033   0.39774   0.32550   0.11088
H          H       0.39747   0.43739   0.19017   0.11348
H          H       0.56410   0.96344   0.17128   0.11010
H          H       0.03498   0.60071   0.18328   0.11165
H          H       0.56399   0.56542   0.46224   0.10888
H          H       0.43339   0.99685   0.46929   0.10871
H          H       0.00013   0.43513   0.46584   0.10807
H          H       0.43374   0.43419   0.04544   0.10797
H          H       0.56600   0.00342   0.03289   0.10817
H          H       0.99736   0.56460   0.04128   0.10867
H          H       0.57879   0.63504   0.02697   0.13401
H          H       0.36249   0.93923   0.02543   0.13476
H          H       0.06261   0.42643   0.02086   0.13543
H          H       0.42292   0.36487   0.47765   0.13456
H          H       0.63823   0.06491   0.47597   0.13369
H          H       0.93751   0.57446   0.47368   0.13458
H          H       0.52142   0.46836   0.04235   0.09859
H          H       0.53201   0.05668   0.04521   0.09904
H          H       0.94942   0.47707   0.03284   0.09652
H          H       0.47778   0.52904   0.47358   0.09825
H          H       0.47234   0.94884   0.46725   0.09751
H          H       0.05379   0.52246   0.45910   0.09874
H          H       0.48852   0.56252   0.13187   0.10863
H          H       0.44043   0.92962   0.12820   0.10620
H          H       0.07260   0.50957   0.12800   0.10868
H          H       0.51031   0.43885   0.37508   0.10707
H          H       0.56358   0.07349   0.37332   0.10946
H          H       0.92612   0.48607   0.37318   0.10737
H          H       0.49692   0.62988   0.20184   0.13252
H          H       0.37226   0.86960   0.19093   0.13354
H          H       0.13282   0.50446   0.20464   0.13478
H          H       0.50218   0.37151   0.30771   0.13331
H          H       0.63050   0.13318   0.29906   0.13238
H          H       0.86590   0.49317   0.30837   0.13314
H          H       0.45433   0.70102   0.91205   0.12307
H          H       0.30123   0.75216   0.97447   0.12294
H          H       0.24607   0.54445   0.02493   0.12278
H          H       0.54370   0.29894   0.48610   0.12214
H          H       0.70009   0.25292   0.53031   0.12310
H          H       0.75047   0.44913   0.52083   0.12271
H          H       0.58307   0.74763   0.00529   0.12246
H          H       0.25029   0.83355   0.95457   0.12262
H          H       0.16635   0.41670   0.91992   0.12204
H          H       0.41307   0.24871   0.56574   0.12238
H          H       0.74710   0.16812   0.52706   0.12210
H          H       0.83213   0.58126   0.51633   0.12244
H          H       0.59339   0.81939   0.02443   0.12366
H          H       0.17825   0.77207   0.97267   0.12471
H          H       0.22636   0.40399   0.94382   0.12829
H          H       0.40224   0.17677   0.55107   0.12535
H          H       0.82002   0.22808   0.50758   0.12477
H          H       0.77071   0.59139   0.48495   0.12488
H          H       0.46539   0.77306   0.92202   0.12345
H          H       0.22901   0.69049   0.98130   0.12433
H          H       0.30691   0.53253   0.03731   0.12379
H          H       0.53351   0.22702   0.48198   0.12457
H          H       0.77324   0.31303   0.52220   0.12465
H          H       0.68876   0.45934   0.50147   0.12455
H          H       0.41793   0.53473   0.55942   0.13847
H          H       0.46692   0.88287   0.54266   0.13752
H          H       0.12000   0.58292   0.52962   0.13737
H          H       0.58169   0.46246   0.96449   0.13852
H          H       0.53795   0.12343   0.97906   0.13961
H          H       0.88432   0.41716   0.95085   0.13645
H          H       0.65830   0.54499   0.75111   0.13206
H          H       0.45282   0.11134   0.77399   0.13283
H          H       0.89626   0.34099   0.76152   0.13561
H          H       0.34061   0.44614   0.75977   0.13455
H          H       0.55358   0.89456   0.73133   0.13417
H          H       0.11054   0.65790   0.72677   0.13133
H          H       0.60083   0.55148   0.84537   0.10765
H          H       0.44920   0.04842   0.86228   0.10752
H          H       0.96063   0.40034   0.83996   0.11163
H          H       0.39941   0.44122   0.67226   0.10900
H          H       0.55894   0.95920   0.65300   0.10855
H          H       0.04537   0.59993   0.64626   0.10870
H          H       0.56853   0.56663   0.96306   0.10586
H          H       0.43123   0.99867   0.96465   0.10733
H          H       0.00314   0.43611   0.96549   0.10763
H          H       0.43482   0.43394   0.54266   0.10659
H          H       0.57017   0.00473   0.53848   0.10852
H          H       0.99695   0.56591   0.53797   0.10738
H          H       0.57408   0.63404   0.52846   0.13577
H          H       0.36403   0.93734   0.52818   0.13826
H          H       0.05998   0.42797   0.53808   0.13463
H          H       0.42346   0.36527   0.98307   0.13595
H          H       0.63433   0.06248   0.96313   0.13590
H          H       0.93774   0.57373   0.98114   0.13571
H          H       0.52285   0.48021   0.51901   0.09516
H          H       0.51801   0.04391   0.51830   0.09571
H          H       0.95273   0.47702   0.53108   0.09698
H          H       0.47724   0.52216   0.98305   0.09542
H          H       0.47943   0.95432   0.97834   0.09571
H          H       0.04196   0.52603   0.98498   0.09585
H          H       0.48751   0.56002   0.64520   0.10621
H          H       0.44206   0.92790   0.64111   0.10614
H          H       0.07469   0.51811   0.64091   0.10567
H          H       0.51221   0.43667   0.86697   0.10822
H          H       0.55813   0.07529   0.86013   0.10593
H          H       0.92442   0.48705   0.86782   0.10684
H          H       0.49671   0.62775   0.71178   0.13296
H          H       0.37409   0.86782   0.70554   0.13487
H          H       0.13492   0.50997   0.70074   0.13206
H          H       0.50228   0.36876   0.79633   0.13132
H          H       0.62511   0.13625   0.79236   0.13388
H          H       0.86434   0.49377   0.79838   0.13292
C          C       0.48409   0.72695   0.48578  -0.08998
C          C       0.27409   0.75678   0.45962  -0.09208
C          C       0.24542   0.52110   0.45978  -0.09249
C          C       0.51645   0.27547   0.02983  -0.09079
C          C       0.72665   0.24448   0.01785  -0.09388
C          C       0.75521   0.48106   0.03223  -0.09260
C          C       0.55825   0.75417   0.44844  -0.09571
C          C       0.24570   0.80328   0.46566  -0.09898
C          C       0.19688   0.44744   0.49281  -0.09571
C          C       0.44164   0.24707   0.05348  -0.09636
C          C       0.75390   0.19701   0.01640  -0.09767
C          C       0.80272   0.55563   0.02866  -0.09671
C          C       0.50845   0.67667   0.45095   0.50805
C          C       0.32349   0.83222   0.44558   0.51144
C          C       0.17026   0.49706   0.44538   0.50884
C          C       0.49054   0.32462   0.05834   0.50968
C          C       0.67636   0.16946   0.04061   0.51103
C          C       0.82990   0.50572   0.06190   0.50825
C          C       0.51773   0.72024   0.46325  -0.04213
C          C       0.28010   0.79716   0.45810  -0.03768
C          C       0.20438   0.48778   0.46781  -0.03849
C          C       0.48210   0.28138   0.04564  -0.04006
C          C       0.71993   0.20385   0.02301  -0.03746
C          C       0.79581   0.51501   0.03956  -0.03816
C          C       0.56487   0.79435   0.45569  -0.09296
C          C       0.20566   0.76922   0.47521  -0.08946
C          C       0.23022   0.44055   0.50812  -0.09060
C          C       0.43575   0.20715   0.04657  -0.09354
C          C       0.79419   0.23062   0.00671  -0.09055
C          C       0.76910   0.56207   0.01215  -0.09212
C          C       0.49051   0.76715   0.48794  -0.09846
C          C       0.23398   0.72268   0.46334  -0.09709
C          C       0.27875   0.51403   0.47118  -0.09661
C          C       0.51068   0.23553   0.02810  -0.09831
C          C       0.76702   0.27815   0.01315  -0.09600
C          C       0.72148   0.48752   0.02122  -0.09706
C          C       0.54035   0.84476   0.46972   0.51035
C          C       0.15597   0.69389   0.47258   0.50798
C          C       0.30528   0.46354   0.49902   0.50777
C          C       0.46189   0.15786   0.04119   0.50861
C          C       0.84495   0.30556   0.01252   0.51139
C          C       0.69356   0.53708   0.00772   0.51198
C          C       0.53102   0.80100   0.47258  -0.03414
C          C       0.19959   0.72883   0.47157  -0.03836
C          C       0.27124   0.47361   0.49483  -0.03938
C          C       0.47024   0.20124   0.03707  -0.03447
C          C       0.80100   0.27129   0.00868  -0.03892
C          C       0.72836   0.52814   0.01202  -0.03727
C          C       0.41412   0.51401   0.47713  -0.18577
C          C       0.48765   0.90056   0.46005  -0.18507
C          C       0.10124   0.58619   0.45253  -0.18716
C          C       0.58540   0.48482   0.04106  -0.18689
C          C       0.51571   0.10408   0.05621  -0.18821
C          C       0.90107   0.41356   0.03403  -0.18567
C          C       0.51885   0.51751   0.24644  -0.02404
C          C       0.48349   0.00328   0.24891  -0.02509
C          C       0.99711   0.47971   0.24652  -0.02378
C          C       0.47979   0.48324   0.25941  -0.02380
C          C       0.51820   0.99894   0.25544  -0.02549
C          C       0.00161   0.51867   0.25590  -0.02566
C          C       0.63034   0.54090   0.18828  -0.19214
C          C       0.46014   0.09158   0.21283  -0.18980
C          C       0.90794   0.36904   0.19737  -0.19349
C          C       0.36903   0.46189   0.31865  -0.19328
C          C       0.53968   0.90934   0.29394  -0.19037
C          C       0.09004   0.63005   0.29870  -0.19082
C          C       0.59606   0.54361   0.23305  -0.11614
C          C       0.45718   0.05409   0.24988  -0.11446
C          C       0.94433   0.40301   0.24382  -0.11342
C          C       0.40292   0.45907   0.27051  -0.11511
C          C       0.54244   0.94640   0.25223  -0.11258
C          C       0.05291   0.59573   0.25880  -0.11478
C          C       0.44346   0.48453   0.31963   0.05364
C          C       0.51712   0.96091   0.30885   0.05187
C          C       0.03954   0.55552   0.30960   0.05272
C          C       0.55543   0.51628   0.18791   0.05188
C          C       0.48430   0.04128   0.19660   0.05150
C          C       0.95947   0.44322   0.19035   0.05261
C          C       0.55073   0.58007   0.40084  -0.12182
C          C       0.41958   0.96996   0.40398  -0.12265
C          C       0.02831   0.44880   0.40418  -0.12447
C          C       0.44717   0.41991   0.10773  -0.12348
C          C       0.58070   0.03083   0.09580  -0.12295
C          C       0.96953   0.55045   0.10456  -0.12446
C          C       0.55608   0.61843   0.44025  -0.18598
C          C       0.38076   0.93632   0.43942  -0.18861
C          C       0.06215   0.44519   0.44721  -0.18471
C          C       0.44182   0.38138   0.07017  -0.18598
C          C       0.61888   0.06425   0.05411  -0.18450
C          C       0.93582   0.55519   0.06826  -0.18646
C          C       0.47187   0.44128   0.21818   0.06047
C          C       0.56007   0.03343   0.21142   0.06302
C          C       0.96678   0.52568   0.21540   0.06189
C          C       0.52643   0.55927   0.28904   0.06202
C          C       0.44164   0.96832   0.29072   0.06166
C          C       0.03147   0.47228   0.28927   0.06080
C          C       0.46194   0.36465   0.14239   0.24447
C          C       0.63618   0.10077   0.12742   0.24483
C          C       0.89888   0.53437   0.14190   0.24365
C          C       0.53646   0.63576   0.36836   0.24423
C          C       0.36430   0.90069   0.36193   0.24378
C          C       0.09958   0.46577   0.37592   0.24357
C          C       0.55154   0.48814   0.08646  -0.11565
C          C       0.51232   0.06651   0.09479  -0.11642
C          C       0.93754   0.44713   0.08148  -0.11648
C          C       0.44764   0.51074   0.42766  -0.11786
C          C       0.49079   0.93765   0.41668  -0.11762
C          C       0.06400   0.55224   0.41149  -0.11614
C          C       0.62448   0.51077   0.09468   0.25050
C          C       0.49001   0.11662   0.11774   0.24970
C          C       0.88626   0.37478   0.09381   0.25134
C          C       0.37516   0.49010   0.41996   0.25279
C          C       0.51183   0.88645   0.39680   0.25144
C          C       0.11435   0.62478   0.39373   0.25155
C          C       0.50750   0.57802   0.21833  -0.10987
C          C       0.42385   0.93171   0.21539  -0.10829
C          C       0.06938   0.49147   0.21763  -0.11028
C          C       0.49110   0.42297   0.28949  -0.10840
C          C       0.57891   0.07062   0.28389  -0.11053
C          C       0.92904   0.50553   0.28775  -0.11061
C          C       0.51211   0.61599   0.25722  -0.18504
C          C       0.38548   0.89777   0.25019  -0.18322
C          C       0.10356   0.48870   0.26032  -0.18528
C          C       0.48666   0.38499   0.25210  -0.18485
C          C       0.61665   0.10443   0.24258  -0.18432
C          C       0.89495   0.50938   0.25168  -0.18319
C          C       0.48467   0.72725   0.93557  -0.09470
C          C       0.27399   0.75596   0.97325  -0.09183
C          C       0.24237   0.51400   0.00625  -0.09178
C          C       0.51304   0.27186   0.50111  -0.09213
C          C       0.72670   0.24807   0.52656  -0.09169
C          C       0.75434   0.48005   0.51414  -0.09426
C          C       0.55737   0.75326   0.98850  -0.09937
C          C       0.24555   0.80235   0.96271  -0.09746
C          C       0.19691   0.44172   0.94765  -0.09718
C          C       0.43916   0.24382   0.54544  -0.09587
C          C       0.75302   0.19981   0.52400  -0.09689
C          C       0.80083   0.55476   0.51095  -0.09756
C          C       0.50903   0.67647   0.94274   0.50594
C          C       0.32357   0.83116   0.94992   0.51073
C          C       0.16892   0.49153   0.95586   0.50987
C          C       0.48861   0.32176   0.54211   0.50916
C          C       0.67584   0.17320   0.55037   0.50743
C          C       0.82932   0.50591   0.54553   0.51067
C          C       0.51796   0.72001   0.95656  -0.03408
C          C       0.28004   0.79629   0.96281  -0.04140
C          C       0.20287   0.48156   0.97043  -0.04106
C          C       0.47934   0.27815   0.52816  -0.04215
C          C       0.71948   0.20727   0.53196  -0.03957
C          C       0.79471   0.51444   0.52231  -0.03864
C          C       0.56324   0.79319  -0.00103  -0.08994
C          C       0.20552   0.76831   0.97225  -0.09226
C          C       0.23021   0.43460   0.96012  -0.09516
C          C       0.43307   0.20377   0.53761  -0.09314
C          C       0.79351   0.23302   0.51354  -0.09243
C          C       0.76675   0.56047   0.49394  -0.09297
C          C       0.49086   0.76732   0.94188  -0.09694
C          C       0.23389   0.72182   0.97777  -0.09777
C          C       0.27604   0.50724   0.01371  -0.09803
C          C       0.50722   0.23189   0.49803  -0.09744
C          C       0.76727   0.28132   0.52122  -0.09908
C          C       0.72017   0.48580   0.50247  -0.09665
C          C       0.53946   0.84448   0.97506   0.50929
C          C       0.15566   0.69321   0.97446   0.50943
C          C       0.30458   0.45791   0.98894   0.50861
C          C       0.45898   0.15416   0.52275   0.51070
C          C       0.84490   0.30794   0.51970   0.51164
C          C       0.69092   0.53452   0.49269   0.51188
C          C       0.53032   0.80066   0.97331  -0.03820
C          C       0.19943   0.72793   0.97675  -0.03453
C          C       0.27007   0.46743   0.99014  -0.03429
C          C       0.46716   0.19760   0.51724  -0.03519
C          C       0.80087   0.27386   0.51610  -0.03571
C          C       0.72622   0.52614   0.49350  -0.03540
C          C       0.41394   0.50892   0.98417  -0.18717
C          C       0.49170   0.90382   0.96795  -0.18614
C          C       0.09498   0.58742   0.97205  -0.18487
C          C       0.58484   0.48947   0.51740  -0.18641
C          C       0.50729   0.09550   0.52584  -0.18299
C          C       0.90298   0.41397   0.53903  -0.18767
C          C       0.51993   0.51623   0.75264  -0.02217
C          C       0.48343   0.00326   0.75268  -0.02304
C          C       0.99801   0.48197   0.75091  -0.02343
C          C       0.48086   0.48187   0.75884  -0.02473
C          C       0.51834  -0.00069   0.75346  -0.02479
C          C       0.00107   0.52032   0.75414  -0.02302
C          C       0.62849   0.53050   0.70053  -0.19125
C          C       0.46737   0.09677   0.71798  -0.18760
C          C       0.90842   0.37091   0.71155  -0.19038
C          C       0.37050   0.46293   0.80922  -0.18880
C          C       0.53721   0.90756   0.78561  -0.19061
C          C       0.09560   0.62877   0.78249  -0.18810
C          C       0.59553   0.53414   0.75332  -0.11101
C          C       0.46510   0.06054   0.76694  -0.11334
C          C       0.94511   0.40499   0.75565  -0.11385
C          C       0.40439   0.46039   0.75961  -0.11325
C          C       0.54003   0.94448   0.74158  -0.11244
C          C       0.05829   0.59563   0.73814  -0.11225
C          C       0.44411   0.48285   0.81704   0.05403
C          C       0.51791   0.96139   0.80578   0.05454
C          C       0.03902   0.55730   0.80675   0.05493
C          C       0.55618   0.51463   0.69273   0.05410
C          C       0.48424   0.04123   0.69872   0.05550
C          C       0.96083   0.44457   0.69697   0.05460
C          C       0.55390   0.58020   0.90326  -0.12450
C          C       0.41850   0.97099   0.90315  -0.12293
C          C       0.03095   0.45086   0.90216  -0.12142
C          C       0.44814   0.41926   0.60355  -0.12303
C          C       0.58265   0.03244   0.59981  -0.12417
C          C       0.96895   0.55154   0.60030  -0.12345
C          C       0.55945   0.61878   0.94171  -0.18228
C          C       0.37984   0.93732   0.93981  -0.18368
C          C       0.06467   0.44578   0.93592  -0.18644
C          C       0.44186   0.38052   0.56417  -0.18312
C          C       0.62080   0.06657   0.56170  -0.18573
C          C       0.93522   0.55597   0.56138  -0.18292
C          C       0.47343   0.44028   0.71341   0.06537
C          C       0.55953   0.03474   0.70881   0.06264
C          C       0.96594   0.52668   0.71124   0.06561
C          C       0.52773   0.55805   0.79639   0.06581
C          C       0.44171   0.96828   0.79520   0.06357
C          C       0.03363   0.47643   0.79384   0.06481
C          C       0.46186   0.36303   0.63289   0.24404
C          C       0.63552   0.10361   0.63088   0.24343
C          C       0.89781   0.53487   0.63238   0.24350
C          C       0.53838   0.63532   0.87370   0.24278
C          C       0.36448   0.90043   0.86932   0.24333
C          C       0.10165   0.46701   0.86277   0.24473
C          C       0.55220   0.49351   0.57160  -0.11598
C          C       0.50435   0.05903   0.57563  -0.11738
C          C       0.93983   0.44760   0.58402  -0.11667
C          C       0.44758   0.50618   0.93247  -0.11715
C          C       0.49499   0.94085   0.92251  -0.11492
C          C       0.05749   0.55460   0.92663  -0.11784
C          C       0.62259   0.50755   0.58433   0.25424
C          C       0.48891   0.11421   0.59826   0.25155
C          C       0.88709   0.37609   0.60585   0.25197
C          C       0.37563   0.48750   0.92083   0.25105
C          C       0.51241   0.88711   0.89722   0.25317
C          C       0.11398   0.62413   0.89751   0.25135
C          C       0.50778   0.57632   0.72837  -0.11138
C          C       0.42473   0.93064   0.72509  -0.11077
C          C       0.07170   0.49764   0.72330  -0.10917
C          C       0.49247   0.42116   0.78186  -0.11104
C          C       0.57570   0.07270   0.77663  -0.10927
C          C       0.92775   0.50643   0.78168  -0.11047
C          C       0.51277   0.61455   0.76574  -0.18504
C          C       0.38648   0.89665   0.76116  -0.18451
C          C       0.10577   0.49336   0.75682  -0.18491
C          C       0.48707   0.38288   0.74240  -0.18494
C          C       0.61328   0.10720   0.73855  -0.18456
C          C       0.89367   0.51008   0.74312  -0.18427
O          O       0.54305   0.67501   0.40652  -0.26185
O          O       0.32445   0.86725   0.39440  -0.26126
O          O       0.13311   0.46125   0.42005  -0.25922
O          O       0.45587   0.32544   0.10621  -0.26048
O          O       0.67531   0.13388   0.08684  -0.26188
O          O       0.86551   0.54028   0.10603  -0.26123
O          O       0.47480   0.64598   0.47431  -0.44188
O          O       0.35457   0.83061   0.47387  -0.44419
O          O       0.17430   0.53165   0.44716  -0.44166
O          O       0.52371   0.35566   0.03273  -0.44416
O          O       0.64539   0.17211   0.02002  -0.44426
O          O       0.82706   0.47194   0.04572  -0.44261
O          O       0.50571   0.84724   0.43372  -0.25673
O          O       0.15386   0.65785   0.42678  -0.25533
O          O       0.34285   0.49728   0.45981  -0.25557
O          O       0.49620   0.15618   0.08597  -0.25710
O          O       0.84737   0.34214   0.05330  -0.25611
O          O       0.65744   0.50404   0.05940  -0.25609
O          O       0.57426   0.87468   0.49307  -0.43917
O          O       0.12567   0.69646   0.50664  -0.43861
O          O       0.30095   0.42987   0.52964  -0.43848
O          O       0.42895   0.12738   0.01261  -0.43848
O          O       0.87513   0.30188   0.98652  -0.44144
O          O       0.69631   0.56930   0.96725  -0.43923
O          O       0.54456   0.67448   0.91297  -0.26154
O          O       0.32496   0.86710   0.90577  -0.26294
O          O       0.13472   0.45991   0.89329  -0.26276
O          O       0.45479   0.32358   0.59360  -0.26172
O          O       0.67461   0.13718   0.59308  -0.26192
O          O       0.86433   0.54041   0.59336  -0.26220
O          O       0.47447   0.64603   0.95386  -0.43720
O          O       0.35451   0.82876   0.97365  -0.44269
O          O       0.17082   0.52364   0.99295  -0.44264
O          O       0.52188   0.35236   0.51377  -0.44149
O          O       0.64502   0.17629   0.53271  -0.43969
O          O       0.82721   0.47254   0.52673  -0.44350
O          O       0.50558   0.84750   0.93333  -0.25896
O          O       0.15351   0.65665   0.93440  -0.25781
O          O       0.34277   0.49320   0.96658  -0.25691
O          O       0.49455   0.15274   0.55361  -0.25855
O          O       0.84744   0.34360   0.57082  -0.25703
O          O       0.65468   0.50046   0.53934  -0.25913
O          O       0.57258   0.87427   0.00677  -0.44167
O          O       0.12529   0.69653   0.00042  -0.44181
O          O       0.29990   0.42326   0.00085  -0.43730
O          O       0.42510   0.12344   0.50628  -0.44094
O          O       0.87500   0.30497   0.48634  -0.44281
O          O       0.69346   0.56733   0.46055  -0.44194

