data_crystal

_audit_creation_method 'AiiDA-DDEC plugin'

_cell_length_a        68.03866
_cell_length_b        68.37204
_cell_length_c         7.99524

_cell_angle_alpha     92.31751
_cell_angle_beta     89.38110
_cell_angle_gamma     120.33115

_symmetry_space_group_name_Hall 'P 1'
_symmetry_space_group_name_H-M  'P 1'

loop_
_symmetry_equiv_pos_as_xyz
 'x,y,z'

loop_
_atom_site_label
_atom_site_type_symbol
_atom_site_fract_x
_atom_site_fract_y
_atom_site_fract_z
_atom_site_charge
H          H       0.31787   0.74043   0.14925   0.10758
H          H       0.25594   0.57451   0.17262   0.10471
H          H       0.42508   0.68190   0.14388   0.10629
H          H       0.67961   0.25686   0.33261   0.10618
H          H       0.74136   0.42408   0.33840   0.10622
H          H       0.57351   0.31665   0.34555   0.10519
H          H       0.30948   0.70096   0.11440   0.10668
H          H       0.29543   0.60529   0.13450   0.10352
H          H       0.39315   0.68869   0.10970   0.10713
H          H       0.68776   0.29623   0.36612   0.10397
H          H       0.70203   0.39267   0.37212   0.10557
H          H       0.60512   0.30932   0.38068   0.10604
H          H       0.37349   0.72925   0.35364   0.10379
H          H       0.27228   0.64607   0.34997   0.10423
H          H       0.35702   0.63036   0.33282   0.10509
H          H       0.62643   0.27273   0.13659   0.10448
H          H       0.72773   0.35495   0.14263   0.10394
H          H       0.64420   0.37221   0.15257   0.10357
H          H       0.38207   0.76870   0.40040   0.10110
H          H       0.23304   0.61487   0.38960   0.09892
H          H       0.38750   0.62177   0.38351   0.09802
H          H       0.61818   0.23328   0.09612   0.09975
H          H       0.76729   0.38514   0.09867   0.10031
H          H       0.61313   0.38026   0.11018   0.10005
H          H       0.30122   0.67484   0.47451   0.10033
H          H       0.32783   0.62966   0.47019   0.10093
H          H       0.37351   0.70160   0.48112   0.10001
H          H       0.69921   0.32700   0.02278   0.09917
H          H       0.67297   0.37242   0.01852   0.10006
H          H       0.62703   0.30049   0.01049   0.09944
H          H       0.38995   0.78842   0.15173   0.10469
H          H       0.20857   0.59908   0.14085   0.10421
H          H       0.40237   0.61076   0.17068   0.10454
H          H       0.60848   0.20978   0.33954   0.10499
H          H       0.79015   0.40173   0.34054   0.10207
H          H       0.59663   0.38772   0.33154   0.10429
H          H       0.40188   0.82926   0.19954   0.12409
H          H       0.16789   0.57149   0.20018   0.12217
H          H       0.43236   0.60109   0.22694   0.12335
H          H       0.59585   0.16881   0.28609   0.12262
H          H       0.83035   0.43119   0.28358   0.12232
H          H       0.56690   0.39757   0.27042   0.12254
H          H       0.33694   0.81575   0.01604   0.14321
H          H       0.17883   0.51611   0.07540   0.14174
H          H       0.48298   0.66376   0.02248   0.14169
H          H       0.66043   0.18079   0.46415   0.14553
H          H       0.81703   0.48335   0.46231   0.14155
H          H       0.51550   0.33457   0.46537   0.14322
H          H       0.32773   0.78076   0.44636   0.10956
H          H       0.22329   0.54774   0.47926   0.10496
H          H       0.45416   0.67687   0.49255   0.10752
H          H       0.67512   0.22331   0.04934   0.10746
H          H       0.77972   0.45317   0.00554   0.10729
H          H       0.54590   0.32406   0.01333   0.10738
H          H       0.46672   0.58593   0.18384   0.10963
H          H       0.41725   0.87985   0.16187   0.10890
H          H       0.11938   0.53923   0.16399   0.10961
H          H       0.53608   0.41394   0.35377   0.10941
H          H       0.57843   0.12078   0.37795   0.10916
H          H       0.87901   0.46528   0.31717   0.10970
H          H       0.47136   0.55270   0.12102   0.10237
H          H       0.44937   0.91809   0.10581   0.10040
H          H       0.08275   0.53603   0.08421   0.10356
H          H       0.53311   0.44767   0.43710   0.10223
H          H       0.54569   0.08429   0.46288   0.10372
H          H       0.91686   0.47003   0.37664   0.10339
H          H       0.53132   0.59471   0.36079   0.10958
H          H       0.40869   0.93866   0.33789   0.10520
H          H       0.06443   0.46766   0.34583   0.10984
H          H       0.46843   0.40542   0.14984   0.10690
H          H       0.59850   0.06519   0.15144   0.11151
H          H       0.93753   0.52790   0.15230   0.10781
H          H       0.52619   0.62783   0.41844   0.12303
H          H       0.37561   0.90083   0.39532   0.12015
H          H       0.10255   0.47292   0.41229   0.12342
H          H       0.47239   0.37189   0.07684   0.12346
H          H       0.63162   0.10301   0.08863   0.12277
H          H       0.90014   0.52343   0.07681   0.12361
H          H       0.46584   0.49860   0.24403   0.10513
H          H       0.50597   0.96925   0.24188   0.10262
H          H       0.03497   0.53281   0.23814   0.10292
H          H       0.53493   0.49968   0.32510   0.10484
H          H       0.50427   0.03671   0.30594   0.10304
H          H       0.96656   0.46241   0.27015   0.10126
H          H       0.53633   0.52851   0.38784   0.10465
H          H       0.47465   0.00953   0.34192   0.10453
H          H       0.99227   0.46437   0.39312   0.10204
H          H       0.46883   0.47605   0.10447   0.10117
H          H       0.52708   0.99326   0.08580   0.10029
H          H       0.00869   0.53251   0.15108   0.10399
H          H       0.46625   0.53258   0.35602   0.10455
H          H       0.47203   0.93630   0.34785   0.10358
H          H       0.06804   0.53236   0.34834   0.09961
H          H       0.53395   0.46555   0.20983   0.10094
H          H       0.53808   0.06947   0.19654   0.09936
H          H       0.93383   0.46254   0.14885   0.10175
H          H       0.55502   0.57889   0.43494   0.12964
H          H       0.42457   0.97783   0.38896   0.12738
H          H       0.02263   0.44447   0.42180   0.13168
H          H       0.44759   0.42416   0.06402   0.12938
H          H       0.57908   0.02415   0.05411   0.13092
H          H       0.98042   0.55215   0.10596   0.12833
H          H       0.55833   0.56522   0.96901   0.12950
H          H       0.43565   0.99102   0.02013   0.13214
H          H       0.00513   0.45478   0.06824   0.13202
H          H       0.45290   0.44372   0.40451   0.13304
H          H       0.57431   0.02545   0.56573   0.12698
H          H       0.99151   0.55223   0.42574   0.13157
H          H       0.54212   0.56199   0.15191   0.12923
H          H       0.42378   0.96379   0.10630   0.12938
H          H       0.03474   0.46592   0.09830   0.13013
H          H       0.46395   0.42510   0.38555   0.12642
H          H       0.55242   0.00785   0.41984   0.13222
H          H       0.96169   0.54166   0.42142   0.12994
H          H       0.31912   0.74517   0.66151   0.10519
H          H       0.25851   0.57748   0.63789   0.10585
H          H       0.42390   0.68312   0.68652   0.10518
H          H       0.68232   0.25697   0.85160   0.10719
H          H       0.74334   0.42389   0.85111   0.10472
H          H       0.57548   0.31768   0.82259   0.10687
H          H       0.31137   0.70586   0.62851   0.10392
H          H       0.29767   0.60902   0.60611   0.10371
H          H       0.39273   0.69108   0.64553   0.10502
H          H       0.68991   0.29620   0.88008   0.10401
H          H       0.70381   0.39314   0.88498   0.10677
H          H       0.60719   0.31034   0.85366   0.10470
H          H       0.37224   0.72382   0.84882   0.10307
H          H       0.27128   0.64037   0.84044   0.10448
H          H       0.35361   0.62274   0.86645   0.10449
H          H       0.62713   0.27378   0.65781   0.10329
H          H       0.72711   0.35657   0.64431   0.10406
H          H       0.64411   0.37398   0.64280   0.10426
H          H       0.38108   0.76330   0.89239   0.09958
H          H       0.23171   0.61020   0.88811   0.10072
H          H       0.38498   0.61536   0.91360   0.10115
H          H       0.61833   0.23423   0.61512   0.10116
H          H       0.76651   0.38750   0.60116   0.10114
H          H       0.61312   0.38194   0.59529   0.10110
H          H       0.29954   0.66966   0.97297   0.10064
H          H       0.32587   0.62440   0.98027   0.09959
H          H       0.37174   0.69629   0.97118   0.09798
H          H       0.69846   0.32764   0.51689   0.10031
H          H       0.67197   0.37284   0.52156   0.09919
H          H       0.62624   0.30085   0.52355   0.09910
H          H       0.38852   0.79252   0.69550   0.10465
H          H       0.20908   0.60016   0.63539   0.10453
H          H       0.40103   0.61278   0.66025   0.10524
H          H       0.61161   0.20804   0.82478   0.10453
H          H       0.79051   0.39841   0.85156   0.10373
H          H       0.59838   0.38809   0.84061   0.10402
H          H       0.40084   0.83349   0.73622   0.12344
H          H       0.16925   0.57064   0.70022   0.12289
H          H       0.42989   0.60121   0.71018   0.12332
H          H       0.60184   0.16792   0.77353   0.12344
H          H       0.83098   0.42635   0.79025   0.12265
H          H       0.56917   0.39904   0.78672   0.12290
H          H       0.34002   0.82172   0.48663   0.14159
H          H       0.18340   0.51830   0.54276   0.14167
H          H       0.48276   0.66513   0.53897   0.14164
H          H       0.66527   0.18313  -0.00070   0.14088
H          H       0.82021   0.48108   0.94342   0.14236
H          H       0.51682   0.33517   0.96375   0.14198
H          H       0.32497   0.77503   0.97044   0.10843
H          H       0.21962   0.54372   0.01600   0.10717
H          H       0.45308   0.67358   0.96794   0.10876
H          H       0.67308   0.22154   0.51685   0.10819
H          H       0.77674   0.45400   0.51623   0.10639
H          H       0.54510   0.32449   0.52383   0.10880
H          H       0.46364   0.58512   0.67051   0.11064
H          H       0.41980   0.88318   0.64363   0.11104
H          H       0.12104   0.53584   0.67677   0.11209
H          H       0.53741   0.41534   0.85819   0.11009
H          H       0.58653   0.12159   0.86624   0.11040
H          H       0.88116   0.46012   0.81786   0.11000
H          H       0.46873   0.55213   0.61275   0.10474
H          H       0.45294   0.92069   0.58472   0.10471
H          H       0.08339   0.53097   0.60737   0.10048
H          H       0.53400   0.44883   0.93853   0.10194
H          H       0.55348   0.08439   0.93448   0.10142
H          H       0.91845   0.46437   0.89350   0.10307
H          H       0.53098   0.59427   0.83388   0.10366
H          H       0.40424   0.93195   0.82812   0.10527
H          H       0.06105   0.47054   0.84824   0.10655
H          H       0.46762   0.40447   0.65169   0.10788
H          H       0.59190   0.06418   0.64269   0.10711
H          H       0.93588   0.53215   0.65728   0.10857
H          H       0.52636   0.62752   0.89862   0.12304
H          H       0.37202   0.89386   0.88964   0.12336
H          H       0.09820   0.47432   0.92242   0.12188
H          H       0.47116   0.37076   0.57398   0.12286
H          H       0.62460   0.10114   0.56357   0.12077
H          H       0.89789   0.52731   0.59649   0.12378
H          H       0.46510   0.49771   0.75061   0.10495
H          H       0.50312   0.96884   0.77471   0.10147
H          H       0.03459   0.53713   0.70328   0.10154
H          H       0.53408   0.49862   0.82257   0.10395
H          H       0.49772   0.03434   0.83310   0.10472
H          H       0.96632   0.46681   0.72924   0.10481
H          H       0.53639   0.52781   0.86924   0.10373
H          H       0.46765   0.00546   0.85742   0.10169
H          H       0.99072   0.46953   0.87023   0.10228
H          H       0.46812   0.47512   0.60058   0.10253
H          H       0.52265   0.99274   0.61171   0.10427
H          H       0.00748   0.53768   0.63002   0.10299
H          H       0.46666   0.53265   0.85567   0.10149
H          H       0.46954   0.93448   0.86941   0.10122
H          H       0.06712   0.53664   0.82503   0.10008
H          H       0.53314   0.46446   0.70819   0.09932
H          H       0.53046   0.06773   0.71947   0.10036
H          H       0.93305   0.46710   0.62093   0.10067
H          H       0.54689   0.58324   0.01134   0.13044
H          H       0.41514   0.96655   0.90522   0.13118
H          H       0.02086   0.44915   0.91498   0.12743
H          H       0.44663   0.42339   0.55805   0.13000
H          H       0.56936   0.03738   0.38906   0.12910
H          H       0.97806   0.55679   0.60175   0.13175
H          H       0.55162   0.55967   0.59039   0.13337
H          H       0.44456   0.99594   0.54403   0.13290
H          H       0.00784   0.44956   0.58565   0.13318
H          H       0.45298   0.44474   0.91473   0.13289
H          H       0.55821   0.00835   0.89716   0.13274
H          H       0.99352   0.54610   0.93456   0.13134
H          H       0.53958   0.57732   0.61872   0.13029
H          H       0.42711   0.96653   0.57787   0.13158
H          H       0.03768   0.46066   0.60330   0.12827
H          H       0.46429   0.42645   0.88614   0.12690
H          H       0.57666   0.03801   0.87982   0.12813
H          H       0.96397   0.53634   0.92708   0.13064
C          C       0.35027   0.75485   0.02539   0.06064
C          C       0.24084   0.59027   0.03547   0.05901
C          C       0.40741   0.64807   0.03127   0.06300
C          C       0.64815   0.24255   0.46899   0.05992
C          C       0.75686   0.40798   0.46562   0.05953
C          C       0.59101   0.34992   0.46692   0.06313
C          C       0.32970   0.73679   0.08155  -0.13422
C          C       0.25925   0.58878   0.09767  -0.13323
C          C       0.40955   0.66902   0.08051  -0.12997
C          C       0.66822   0.26055   0.40604  -0.13404
C          C       0.73824   0.40943   0.40775  -0.13423
C          C       0.58888   0.32914   0.41267  -0.13265
C          C       0.32494   0.71446   0.06077  -0.13196
C          C       0.28160   0.60616   0.07515  -0.13322
C          C       0.39149   0.67286   0.06018  -0.13203
C          C       0.67287   0.28285   0.42615  -0.12991
C          C       0.71600   0.39169   0.42794  -0.13329
C          C       0.60675   0.32499   0.43346  -0.13159
C          C       0.34184   0.71441   0.48898   0.05810
C          C       0.28818   0.63027   0.47760   0.06035
C          C       0.37230   0.66123   0.48800   0.05902
C          C       0.65865   0.28758   0.00905   0.05835
C          C       0.71254   0.37135   0.01391   0.05847
C          C       0.62826   0.34072   0.00498   0.05828
C          C       0.36175   0.73261   0.42521  -0.12936
C          C       0.26943   0.63134   0.41703  -0.13014
C          C       0.37129   0.64171   0.41450  -0.12947
C          C       0.63848   0.26937   0.06955  -0.12820
C          C       0.73099   0.36974   0.07455  -0.12931
C          C       0.62944   0.36042   0.07664  -0.12867
C          C       0.36653   0.75487   0.45010  -0.13948
C          C       0.24724   0.61366   0.43846  -0.13540
C          C       0.38859   0.63694   0.44153  -0.13700
C          C       0.63389   0.24714   0.04844  -0.13496
C          C       0.75335   0.38687   0.05111  -0.13878
C          C       0.61185   0.36489   0.05415  -0.13908
C          C       0.33778   0.69098   0.47568   0.07897
C          C       0.31166   0.64984   0.46933   0.07863
C          C       0.35292   0.66519   0.47382   0.08025
C          C       0.66268   0.31098   0.01900   0.07758
C          C       0.68893   0.35207   0.02269   0.08157
C          C       0.64773   0.33688   0.01683   0.07972
C          C       0.31564   0.67211   0.47164  -0.18464
C          C       0.33053   0.64674   0.46920  -0.18221
C          C       0.35624   0.68718   0.47565  -0.18664
C          C       0.68483   0.32978   0.02302  -0.18441
C          C       0.67015   0.35530   0.02096  -0.18426
C          C       0.64431   0.31487   0.01636  -0.18293
C          C       0.35662   0.77877   0.05660   0.04998
C          C       0.21698   0.57338   0.07214   0.05270
C          C       0.42555   0.64289   0.06489   0.04819
C          C       0.64160   0.21860   0.43414   0.05117
C          C       0.78055   0.42576   0.43316   0.05261
C          C       0.57306   0.35537   0.43240   0.04934
C          C       0.37836   0.79438   0.12156  -0.12472
C          C       0.20211   0.58096   0.12523  -0.12297
C          C       0.41995   0.62238   0.13776  -0.12458
C          C       0.61981   0.20343   0.36782  -0.12548
C          C       0.79598   0.41956   0.36772  -0.12081
C          C       0.57893   0.37606   0.36131  -0.12415
C          C       0.38511   0.81712   0.14894  -0.19782
C          C       0.17945   0.56571   0.15912  -0.19940
C          C       0.43657   0.61688   0.16980  -0.19860
C          C       0.61269   0.18064   0.33703  -0.19896
C          C       0.81838   0.43585   0.33546  -0.19699
C          C       0.56246   0.38167   0.32663  -0.19944
C          C       0.37027   0.82479   0.10828   0.26197
C          C       0.17116   0.54244   0.13789   0.26208
C          C       0.45914   0.63166   0.12560   0.26241
C          C       0.62720   0.17249   0.37528   0.26132
C          C       0.82589   0.45873   0.37189   0.26276
C          C       0.53973   0.36683   0.36648   0.26312
C          C       0.34833   0.80967   0.04719  -0.19614
C          C       0.18554   0.53424   0.08972  -0.19310
C          C       0.46542   0.65242   0.05618  -0.19622
C          C       0.64922   0.18722   0.43629  -0.19843
C          C       0.81096   0.46556   0.43443  -0.19570
C          C       0.53318   0.34596   0.43487  -0.20037
C          C       0.34180   0.78679   0.02233  -0.11131
C          C       0.20836   0.54990   0.05742  -0.10944
C          C       0.44846   0.65776   0.02678  -0.11202
C          C       0.65615   0.21014   0.46490  -0.10868
C          C       0.78839   0.44891   0.46403  -0.11339
C          C       0.55001   0.34049   0.46675  -0.11197
C          C       0.50606   0.36994   0.42636   0.51946
C          C       0.62365   0.13596   0.43569   0.51436
C          C       0.86260   0.49228   0.44212   0.51640
C          C       0.49262   0.62849   0.06009   0.51527
C          C       0.37315   0.86091   0.04496   0.51524
C          C       0.13386   0.50939   0.07373   0.51515
C          C       0.49631   0.60891   0.04510  -0.05609
C          C       0.39246   0.88439   0.02984  -0.05638
C          C       0.11113   0.50690   0.04846  -0.05675
C          C       0.50366   0.39015   0.45725  -0.05642
C          C       0.60368   0.11326   0.46458  -0.05280
C          C       0.88599   0.49601   0.45389  -0.05626
C          C       0.48082   0.58770   0.10805  -0.09016
C          C       0.41444   0.89138   0.09008  -0.09250
C          C       0.10657   0.52423   0.09500  -0.09141
C          C       0.52113   0.41196   0.41871  -0.09069
C          C       0.58128   0.10830   0.43566  -0.09423
C          C       0.89151   0.47992   0.39117  -0.09053
C          C       0.48342   0.56907   0.07195  -0.14426
C          C       0.43248   0.91284   0.05728  -0.14154
C          C       0.08597   0.52235   0.05027  -0.14367
C          C       0.51939   0.43081   0.46540  -0.14049
C          C       0.56295   0.08774   0.48288  -0.14236
C          C       0.91272   0.48256   0.42561  -0.14180
C          C       0.50034   0.57089   0.48256   0.08189
C          C       0.43343   0.93254   0.45657   0.08053
C          C       0.07111   0.49900   0.47284   0.08509
C          C       0.50095   0.42967   0.04874   0.08511
C          C       0.57352   0.07195   0.04543   0.08653
C          C       0.93086   0.49646   0.02768   0.08475
C          C       0.51679   0.59266   0.43263  -0.13191
C          C       0.41123   0.92680   0.40800  -0.13306
C          C       0.07659   0.48238   0.42142  -0.13679
C          C       0.48342   0.40762   0.08361  -0.13441
C          C       0.59585   0.07731   0.08577  -0.13881
C          C       0.92557   0.51333   0.07497  -0.13202
C          C       0.51393   0.61127   0.46393  -0.09162
C          C       0.39260   0.90559   0.43922  -0.08814
C          C       0.09789   0.48523   0.45780  -0.09051
C          C       0.48555   0.38877   0.04284  -0.08926
C          C       0.61444   0.09843   0.05093  -0.09116
C          C       0.90464   0.51090   0.03404  -0.09223
C          C       0.50152   0.55048   0.43118   0.00223
C          C       0.45366   0.95368   0.40511   0.00486
C          C       0.04968   0.49782   0.42271  -0.00246
C          C       0.50028   0.45025   0.10404  -0.00058
C          C       0.55307   0.05066   0.09269  -0.00139
C          C       0.95195   0.49764   0.08677   0.00146
C          C       0.48174   0.53168   0.36217  -0.13227
C          C       0.47266   0.95250   0.34683  -0.13388
C          C       0.05130   0.51730   0.35613  -0.12537
C          C       0.51947   0.46781   0.18898  -0.13170
C          C       0.53570   0.05263   0.17421  -0.12855
C          C       0.95037   0.47801   0.15053  -0.13456
C          C       0.48157   0.51245   0.29775  -0.14152
C          C       0.49178   0.97112   0.28465  -0.14202
C          C       0.03246   0.51753   0.29438  -0.14053
C          C       0.52008   0.48730   0.25284  -0.14214
C          C       0.51640   0.03402   0.23407  -0.13974
C          C       0.96896   0.47799   0.21998  -0.14077
C          C       0.50140   0.51089   0.30007   0.07338
C          C       0.49285   0.99214   0.27605   0.07369
C          C       0.01061   0.49819   0.30019   0.07219
C          C       0.50153   0.49063   0.22884   0.06998
C          C       0.51297   0.01205   0.20802   0.07206
C          C       0.99055   0.49781   0.22689   0.07277
C          C       0.52080   0.52924   0.37720  -0.19044
C          C       0.47426   0.99345   0.34130  -0.18940
C          C       0.00894   0.47929   0.37717  -0.19337
C          C       0.48296   0.47361   0.13519  -0.19261
C          C       0.52971   0.01005   0.11692  -0.19291
C          C       0.99221   0.51704   0.15577  -0.19122
C          C       0.52136   0.54884   0.44269   0.12612
C          C       0.45494   0.97500   0.40668   0.12935
C          C       0.02780   0.47852   0.43668   0.13373
C          C       0.48166   0.45347   0.07499   0.13646
C          C       0.54976   0.02872   0.06110   0.13129
C          C       0.97365   0.51753   0.08672   0.13437
C          C       0.54355   0.56588   0.01839  -0.42789
C          C       0.42989   0.97310   0.99050  -0.42662
C          C       0.02156   0.46217   0.00433  -0.42928
C          C       0.46000   0.43521   0.47480  -0.42919
C          C       0.56098   0.02463   0.48398  -0.42948
C          C       0.97597   0.54441   0.50089  -0.42843
C          C       0.35129   0.75986   0.53450   0.06173
C          C       0.24275   0.59390   0.51815   0.06022
C          C       0.40791   0.65171   0.53890   0.06190
C          C       0.64959   0.24224   0.97054   0.06117
C          C       0.75835   0.40671   0.97014   0.06012
C          C       0.59202   0.34957   0.96372   0.06185
C          C       0.33096   0.74169   0.59246  -0.13320
C          C       0.26148   0.59233   0.57180  -0.12974
C          C       0.40940   0.67168   0.60702  -0.13525
C          C       0.67016   0.26045   0.91589  -0.13481
C          C       0.73996   0.40893   0.91751  -0.12934
C          C       0.59039   0.32948   0.89726  -0.13498
C          C       0.32650   0.71944   0.57209  -0.13054
C          C       0.28368   0.61020   0.55303  -0.13049
C          C       0.39182   0.67620   0.58312  -0.13521
C          C       0.67446   0.28263   0.93309  -0.12971
C          C       0.71757   0.39151   0.93752  -0.13306
C          C       0.60828   0.32530   0.91609  -0.13171
C          C       0.34033   0.70923   0.98075   0.05962
C          C       0.28646   0.62547   0.98712   0.05743
C          C       0.37077   0.65625   0.98582   0.06153
C          C       0.65791   0.28811   0.51261   0.05879
C          C       0.71145   0.37200   0.50929   0.05653
C          C       0.62726   0.34115   0.51288   0.06006
C          C       0.36047   0.72732   0.91862  -0.12732
C          C       0.26802   0.62634   0.91784  -0.12868
C          C       0.36902   0.63563   0.93077  -0.12961
C          C       0.63842   0.27015   0.58268  -0.12930
C          C       0.73011   0.37104   0.57313  -0.12797
C          C       0.62894   0.36155   0.57341  -0.12886
C          C       0.36544   0.74962   0.94232  -0.13605
C          C       0.24571   0.60926   0.94362  -0.13960
C          C       0.38682   0.63153   0.95554  -0.14046
C          C       0.63352   0.24784   0.55957  -0.13920
C          C       0.75234   0.38852   0.54967  -0.13777
C          C       0.61136   0.36597   0.54848  -0.13962
C          C       0.33613   0.68577   0.97021   0.08009
C          C       0.31000   0.64474   0.97404   0.07793
C          C       0.35120   0.65992   0.97321   0.07633
C          C       0.66193   0.31152   0.52301   0.08025
C          C       0.68798   0.35258   0.52128   0.07982
C          C       0.64674   0.33730   0.52438   0.07747
C          C       0.31399   0.66698   0.97058  -0.18118
C          C       0.32878   0.64152   0.97477  -0.18577
C          C       0.35450   0.68186   0.96970  -0.18215
C          C       0.68403   0.33035   0.52174  -0.18232
C          C       0.66914   0.35573   0.52389  -0.18340
C          C       0.64347   0.31533   0.52523  -0.18527
C          C       0.35741   0.78377   0.56547   0.05007
C          C       0.21916   0.57610   0.55290   0.05063
C          C       0.42547   0.64560   0.57150   0.05127
C          C       0.64408   0.21854   0.94105   0.04815
C          C       0.78216   0.42376   0.93370   0.05208
C          C       0.57424   0.35537   0.93234   0.05104
C          C       0.37798   0.79890   0.64849  -0.12385
C          C       0.20355   0.58229   0.61487  -0.12372
C          C       0.41887   0.62420   0.63285  -0.12288
C          C       0.62334   0.20263   0.86361  -0.12243
C          C       0.79694   0.41647   0.87245  -0.12486
C          C       0.58058   0.37657   0.86834  -0.12349
C          C       0.38489   0.82173   0.67242  -0.19912
C          C       0.18135   0.56596   0.65163  -0.19871
C          C       0.43480   0.61765   0.66125  -0.19841
C          C       0.61781   0.18025   0.83437  -0.19826
C          C       0.81950   0.43193   0.83723  -0.20048
C          C       0.56443   0.38275   0.83762  -0.19950
C          C       0.37132   0.82986   0.61082   0.25978
C          C       0.17415   0.54297   0.62387   0.26485
C          C       0.45769   0.63232   0.62471   0.26085
C          C       0.63285   0.17330   0.88554   0.26182
C          C       0.82784   0.45514   0.86522   0.26255
C          C       0.54159   0.36792   0.87483   0.26342
C          C       0.35038   0.81517   0.53295  -0.19572
C          C       0.18922   0.53617   0.56425  -0.19666
C          C       0.46496   0.65389   0.56674  -0.19596
C          C       0.65377   0.18874   0.96032  -0.19912
C          C       0.81353   0.46304   0.92256  -0.19184
C          C       0.53459   0.34653   0.93549  -0.19746
C          C       0.34369   0.79221   0.51137  -0.11327
C          C       0.21158   0.55288   0.52952  -0.10860
C          C       0.44868   0.66028   0.54136  -0.11023
C          C       0.65912   0.21126   0.98708  -0.11287
C          C       0.79082   0.44719   0.95634  -0.10902
C          C       0.55109   0.34050   0.96294  -0.10911
C          C       0.50800   0.37127   0.93760   0.51501
C          C       0.63084   0.13767   0.95158   0.51636
C          C       0.86519   0.48839   0.92636   0.51513
C          C       0.49080   0.62836   0.55921   0.51493
C          C       0.37570   0.86624   0.53493   0.51271
C          C       0.13752   0.50842   0.56735   0.51773
C          C       0.49459   0.60875   0.54751  -0.05150
C          C       0.39553   0.88952   0.52196  -0.05709
C          C       0.11419   0.50463   0.54856  -0.05603
C          C       0.50510   0.39132   0.96233  -0.05469
C          C       0.61119   0.11457   0.97211  -0.05660
C          C       0.88831   0.49156   0.94346  -0.05451
C          C       0.47848   0.58725   0.60304  -0.09438
C          C       0.41746   0.89536   0.57645  -0.09231
C          C       0.10864   0.52096   0.60439  -0.09258
C          C       0.52234   0.41318   0.92217  -0.09242
C          C       0.58905   0.10917   0.92809  -0.09037
C          C       0.89364   0.47498   0.89007  -0.09305
C          C       0.48134   0.56871   0.56995  -0.14348
C          C       0.43605   0.91644   0.54270  -0.14353
C          C       0.08753   0.51819   0.56524  -0.14113
C          C       0.52035   0.43195   0.96712  -0.14163
C          C       0.57060   0.08833   0.96673  -0.14108
C          C       0.91457   0.47743   0.93297  -0.14413
C          C       0.50147   0.57095   0.97343   0.08481
C          C       0.42933   0.92808   0.96386   0.08215
C          C       0.06908   0.50302   0.96170   0.08612
C          C       0.50005   0.42860   0.54765   0.08523
C          C       0.56620   0.07119   0.55577   0.08575
C          C       0.92917   0.50135   0.52147   0.08323
C          C       0.51727   0.59246   0.91493  -0.13825
C          C       0.40712   0.92099   0.90651  -0.13189
C          C       0.07359   0.48545   0.92007  -0.13147
C          C       0.48248   0.40662   0.58384  -0.13389
C          C       0.58878   0.07627   0.58152  -0.13054
C          C       0.92370   0.51775   0.57939  -0.13667
C          C       0.51473   0.61115   0.94994  -0.09115
C          C       0.38898   0.89955   0.93922  -0.09039
C          C       0.09435   0.48744   0.96129  -0.08871
C          C       0.48432   0.38767   0.54068  -0.08909
C          C       0.60721   0.09699   0.53813  -0.08868
C          C       0.90243   0.51510   0.54642  -0.09169
C          C       0.50222   0.55032   0.92139   0.00538
C          C       0.44916   0.94992   0.91715   0.00137
C          C       0.04815   0.50232   0.90454   0.00053
C          C       0.49946   0.44920   0.60232  -0.00111
C          C       0.54641   0.04994   0.61180   0.00240
C          C       0.95065   0.50257   0.56995  -0.00119
C          C       0.48200   0.53145   0.85856  -0.13143
C          C       0.46915   0.95018   0.86659  -0.12678
C          C       0.05027   0.52171   0.83225  -0.13286
C          C       0.51869   0.46674   0.68691  -0.13043
C          C       0.52887   0.05119   0.69754  -0.13493
C          C       0.94948   0.48269   0.62413  -0.12587
C          C       0.48120   0.51175   0.79756  -0.14493
C          C       0.48807   0.96959   0.81075  -0.14169
C          C       0.03174   0.52202   0.76426  -0.14211
C          C       0.51930   0.48624   0.74983  -0.14150
C          C       0.51013   0.03220   0.76021  -0.14337
C          C       0.96836   0.48259   0.68647  -0.14289
C          C       0.50097   0.51006   0.79453   0.07314
C          C       0.48789   0.98998   0.80034   0.07434
C          C       0.00975   0.50289   0.77023   0.07212
C          C       0.50080   0.48961   0.72500   0.06913
C          C       0.50758   0.01055   0.73490   0.07173
C          C       0.98976   0.50259   0.69660   0.07360
C          C       0.52085   0.52861   0.86404  -0.19478
C          C       0.46827   0.98989   0.85847  -0.19192
C          C       0.00757   0.48411   0.85237  -0.19163
C          C       0.48219   0.47261   0.63169  -0.19315
C          C       0.52464   0.00928   0.64268  -0.19522
C          C       0.99110   0.52204   0.63217  -0.19417
C          C       0.52195   0.54843   0.92946   0.13249
C          C       0.44918   0.97066   0.91836   0.12979
C          C       0.02608   0.48322   0.91767   0.13402
C          C       0.48089   0.45244   0.57225   0.13586
C          C       0.54397   0.02826   0.58250   0.13528
C          C       0.97224   0.52256   0.56968   0.13159
C          C       0.54302   0.56720   0.52601  -0.42964
C          C       0.43679   0.97894   0.48329  -0.42801
C          C       0.02386   0.45722   0.51620  -0.42985
C          C       0.46055   0.43625   0.97968  -0.42843
C          C       0.56685   0.02465   0.96800  -0.42823
C          C       0.97798   0.53914   0.00962  -0.43008
O          O       0.52560   0.37569   0.33555  -0.26670
O          O       0.61695   0.14893   0.35080  -0.26693
O          O       0.84908   0.47309   0.34207  -0.26187
O          O       0.47343   0.62294   0.15386  -0.25931
O          O       0.38006   0.84827   0.13217  -0.26100
O          O       0.14777   0.52918   0.16694  -0.26747
O          O       0.50421   0.64651   0.99340  -0.43642
O          O       0.35424   0.85357   0.98437  -0.43358
O          O       0.13977   0.49641   0.01660  -0.43284
O          O       0.49313   0.35111   0.47664  -0.43228
O          O       0.64303   0.14252   0.48325  -0.43064
O          O       0.85601   0.50384   0.51548  -0.43666
O          O       0.52771   0.37718   0.84895  -0.26519
O          O       0.62422   0.15005   0.85847  -0.26108
O          O       0.85117   0.46855   0.83396  -0.26542
O          O       0.47137   0.62281   0.65017  -0.26143
O          O       0.38134   0.85344   0.63163  -0.25971
O          O       0.15109   0.52860   0.65789  -0.26631
O          O       0.50254   0.64636   0.49288  -0.43608
O          O       0.35731   0.85927   0.46619  -0.43543
O          O       0.14410   0.49609   0.50766  -0.43354
O          O       0.49540   0.35259   0.99171  -0.43239
O          O       0.64984   0.14495   0.01042  -0.43358
O          O       0.85913   0.50092   0.99073  -0.43344

