data_crystal

_audit_creation_method 'AiiDA-DDEC plugin'

_cell_length_a        41.20660
_cell_length_b        41.66057
_cell_length_c         8.09123

_cell_angle_alpha     90.56622
_cell_angle_beta     89.78146
_cell_angle_gamma     120.18351

_symmetry_space_group_name_Hall 'P 1'
_symmetry_space_group_name_H-M  'P 1'

loop_
_symmetry_equiv_pos_as_xyz
 'x,y,z'

loop_
_atom_site_label
_atom_site_type_symbol
_atom_site_fract_x
_atom_site_fract_y
_atom_site_fract_z
_atom_site_charge
H          H       0.58195   0.24311   0.37598   0.10942
H          H       0.76151   0.34145   0.37541   0.11055
H          H       0.66141   0.42050   0.36618   0.10981
H          H       0.42141   0.76291   0.13875   0.11296
H          H       0.24387   0.66111   0.12288   0.10914
H          H       0.34464   0.58511   0.14181   0.11150
H          H       0.54684   0.17602   0.31102   0.13936
H          H       0.82913   0.37409   0.31099   0.13685
H          H       0.62843   0.45414   0.29220   0.14242
H          H       0.45414   0.82988   0.20482   0.13623
H          H       0.17586   0.62753   0.17938   0.13865
H          H       0.37722   0.55106   0.20916   0.13672
H          H       0.63929   0.18805   0.01678   0.12663
H          H       0.81655   0.45390   0.02724   0.12783
H          H       0.54867   0.35978   0.00673   0.13001
H          H       0.35931   0.81427   0.49134   0.12754
H          H       0.18837   0.54839   0.46891   0.12626
H          H       0.45815   0.64458   0.49604   0.12673
H          H       0.67453   0.25570   0.07902   0.11105
H          H       0.74818   0.42016   0.08523   0.10866
H          H       0.58246   0.32640   0.07561   0.11083
H          H       0.32696   0.74651   0.43189   0.11059
H          H       0.25690   0.58261   0.41577   0.11024
H          H       0.42429   0.67831   0.43473   0.11003
H          H       0.70607   0.30322   0.25252   0.10289
H          H       0.70036   0.40336   0.24527   0.10290
H          H       0.59897   0.29727   0.24560   0.10231
H          H       0.29772   0.69953   0.25693   0.10313
H          H       0.30618   0.60094   0.25921   0.10294
H          H       0.40606   0.70844   0.27447   0.10332
H          H       0.46653   0.43343   0.28463   0.10893
H          H       0.56583   0.03504   0.28959   0.10769
H          H       0.96751   0.53053   0.34821   0.10660
H          H       0.53174   0.55558   0.11138   0.10716
H          H       0.44404   0.97615   0.09349   0.10320
H          H       0.03041   0.46790   0.17326   0.10752
H          H       0.50549   0.41355   0.43334   0.11650
H          H       0.58439   0.09296   0.44580   0.11566
H          H       0.90944   0.49130   0.50126   0.11535
H          H       0.49249   0.57648   0.97324   0.11564
H          H       0.42359   0.91554   0.95821   0.11600
H          H       0.08818   0.50680   0.01736   0.11543
H          H       0.59638   0.52615   0.45173   0.12280
H          H       0.47014   0.06853   0.44678   0.12310
H          H       0.92513   0.39768   0.43505   0.12470
H          H       0.39305   0.47642   0.11756   0.12586
H          H       0.52280   0.91759   0.13339   0.12654
H          H       0.06976   0.59908   0.06062   0.12411
H          H       0.55691   0.54695   0.31074   0.10561
H          H       0.45071   0.00948   0.29601   0.10853
H          H       0.98297   0.43639   0.27712   0.10934
H          H       0.43207   0.45612   0.26631   0.11025
H          H       0.54253   0.97737   0.27758   0.10825
H          H       0.01116   0.56025   0.21428   0.10749
H          H       0.57853   0.23816   0.86861   0.11140
H          H       0.75698   0.33970   0.87894   0.10943
H          H       0.65581   0.41642   0.85561   0.11074
H          H       0.41832   0.75717   0.63330   0.10954
H          H       0.23893   0.65730   0.62514   0.11023
H          H       0.34051   0.58118   0.62366   0.11261
H          H       0.54524   0.17124   0.79986   0.13720
H          H       0.82477   0.37285   0.81752   0.13839
H          H       0.62336   0.45034   0.78123   0.13728
H          H       0.45302   0.82437   0.69668   0.13865
H          H       0.17104   0.62414   0.68681   0.13725
H          H       0.37369   0.54745   0.69139   0.13729
H          H       0.64031   0.18674   0.51462   0.12854
H          H       0.81172   0.45184   0.52888   0.12923
H          H       0.54376   0.35649   0.49221   0.12873
H          H       0.35928   0.81236   0.98117   0.12723
H          H       0.18397   0.54510   0.97544   0.12637
H          H       0.45250   0.64018   0.98807   0.12727
H          H       0.67316   0.25431   0.57850   0.11118
H          H       0.74333   0.41778   0.58639   0.11062
H          H       0.57757   0.32298   0.56005   0.11016
H          H       0.32463   0.74459   0.92096   0.11082
H          H       0.25243   0.57952   0.92062   0.11113
H          H       0.41855   0.67367   0.92412   0.10815
H          H       0.70234   0.30111   0.75227   0.10284
H          H       0.69465   0.40010   0.74132   0.10291
H          H       0.59436   0.29295   0.73080   0.10308
H          H       0.29384   0.69615   0.75625   0.10264
H          H       0.30087   0.59669   0.75616   0.10285
H          H       0.40155   0.70337   0.75724   0.10220
H          H       0.47155   0.43779   0.80459   0.10727
H          H       0.56308   0.03844   0.79758   0.10832
H          H       0.97211   0.53233   0.84388   0.10701
H          H       0.53799   0.56143   0.63002   0.10656
H          H       0.44100   0.97888   0.60550   0.10665
H          H       0.03591   0.47044   0.67004   0.10833
H          H       0.51018   0.41795   0.95412   0.11627
H          H       0.58211   0.09610   0.95575   0.11850
H          H       0.91380   0.49288   0.99436   0.11563
H          H       0.49901   0.58249   0.49240   0.11630
H          H       0.42185   0.91891   0.46644   0.11573
H          H       0.09334   0.50962   0.51249   0.11551
H          H       0.60400   0.52903   0.94057   0.12139
H          H       0.46804   0.07220   0.96261   0.12358
H          H       0.92840   0.39889   0.92015   0.12173
H          H       0.40004   0.47893   0.60276   0.12531
H          H       0.52209   0.92269   0.63903   0.12265
H          H       0.07174   0.60005   0.54013   0.12110
H          H       0.56495   0.55013   0.79989   0.10477
H          H       0.44806   0.01315   0.80992   0.10869
H          H       0.98640   0.43768   0.76311   0.10873
H          H       0.43842   0.45818   0.75060   0.10825
H          H       0.54057   0.98177   0.78679   0.10878
H          H       0.01329   0.56082   0.69367   0.10517
C          C       0.59474   0.23148   0.29563  -0.10845
C          C       0.77308   0.36565   0.29598  -0.10895
C          C       0.63719   0.40722   0.28431  -0.10777
C          C       0.40784   0.77369   0.21932  -0.11012
C          C       0.23211   0.63677   0.20137  -0.10820
C          C       0.36899   0.59816   0.22300  -0.10721
C          C       0.57464   0.19348   0.26025  -0.19069
C          C       0.81152   0.38423   0.26206  -0.18751
C          C       0.61858   0.42635   0.24437  -0.19197
C          C       0.42640   0.81171   0.25436  -0.18852
C          C       0.19351   0.61777   0.23145  -0.18742
C          C       0.38758   0.57880   0.25863  -0.18981
C          C       0.59107   0.17849   0.15792   0.24813
C          C       0.82659   0.41587   0.16406   0.24519
C          C       0.58697   0.40891   0.14281   0.24507
C          C       0.40858   0.82573   0.35349   0.24427
C          C       0.17835   0.58616   0.32980   0.24488
C          C       0.41946   0.59585   0.35890   0.24825
C          C       0.62753   0.20049   0.09822  -0.19425
C          C       0.80412   0.42959   0.10577  -0.19413
C          C       0.57311   0.37251   0.08720  -0.19463
C          C       0.37230   0.80264   0.41251  -0.19348
C          C       0.20087   0.57270   0.39043  -0.19178
C          C       0.43348   0.63214   0.41690  -0.19424
C          C       0.64719   0.23831   0.13516  -0.12272
C          C       0.76583   0.41055   0.13965  -0.11921
C          C       0.59215   0.35393   0.12749  -0.12242
C          C       0.35431   0.76473   0.37749  -0.12123
C          C       0.23928   0.59201   0.35921  -0.12162
C          C       0.41438   0.65090   0.38104  -0.11992
C          C       0.63086   0.25470   0.23170   0.04913
C          C       0.74937   0.37777   0.23271   0.04940
C          C       0.62505   0.37121   0.22349   0.04909
C          C       0.37200   0.74939   0.28317   0.04978
C          C       0.25583   0.62497   0.26759   0.04891
C          C       0.38122   0.63399   0.28659   0.04793
C          C       0.65028   0.29549   0.25296   0.08097
C          C       0.70813   0.35594   0.25293   0.07894
C          C       0.64706   0.35253   0.24892   0.08055
C          C       0.35400   0.70868   0.26164   0.08027
C          C       0.29714   0.64753   0.25336   0.07982
C          C       0.35890   0.65248   0.26356   0.07887
C          C       0.68958   0.31699   0.25566  -0.18674
C          C       0.68643   0.37326   0.25195  -0.18640
C          C       0.62943   0.31369   0.25201  -0.18581
C          C       0.31482   0.68641   0.25446  -0.18583
C          C       0.31958   0.63104   0.25596  -0.18368
C          C       0.37570   0.69132   0.26448  -0.18890
C          C       0.58553   0.46196   0.03493   0.50551
C          C       0.53582   0.12227   0.06275   0.50394
C          C       0.88221   0.41780   0.05716   0.50763
C          C       0.42134   0.54215   0.45510   0.50648
C          C       0.46138   0.88133   0.46161   0.50664
C          C       0.12155   0.58336   0.42846   0.50582
C          C       0.50847   0.49183   0.28596   0.07505
C          C       0.50669   0.01732   0.28194   0.07665
C          C       0.98062   0.48705   0.30066   0.07552
C          C       0.48508   0.50403   0.19931   0.07376
C          C       0.49507   0.98179   0.19521   0.07148
C          C       0.01550   0.51051   0.20641   0.07574
C          C       0.49464   0.45419   0.32405  -0.13527
C          C       0.54444   0.04165   0.32637  -0.13334
C          C       0.95878   0.50150   0.36619  -0.13707
C          C       0.50137   0.53824   0.11641  -0.13735
C          C       0.46121   0.96327   0.10543  -0.13554
C          C       0.03826   0.49645   0.14805  -0.13470
C          C       0.51659   0.44274   0.40655  -0.09090
C          C       0.55515   0.07448   0.41317  -0.09062
C          C       0.92584   0.47947   0.45306  -0.08917
C          C       0.47941   0.55006   0.03686  -0.08983
C          C       0.44971   0.92930   0.02755  -0.08718
C          C       0.07114   0.51836   0.06049  -0.08954
C          C       0.55356   0.46876   0.45264  -0.05236
C          C       0.52825   0.08421   0.45798  -0.04908
C          C       0.91356   0.44181   0.47947  -0.04786
C          C       0.44018   0.52752   0.03508  -0.05201
C          C       0.47218   0.91285   0.03540  -0.05265
C          C       0.08269   0.55562   0.02784  -0.05011
C          C       0.56771   0.50631   0.41526  -0.09041
C          C       0.49066   0.06056   0.41227  -0.08864
C          C       0.93495   0.42695   0.41543  -0.08872
C          C       0.42351   0.49332   0.11682  -0.09011
C          C       0.50599   0.93093   0.12453  -0.09274
C          C       0.06043   0.57011   0.08514  -0.08943
C          C       0.54551   0.51759   0.33470  -0.13045
C          C       0.48014   0.02773   0.32662  -0.13242
C          C       0.96764   0.44910   0.32779  -0.13594
C          C       0.44560   0.48199   0.19821  -0.13652
C          C       0.51704   0.96464   0.20361  -0.13347
C          C       0.02753   0.54796   0.17155  -0.13277
C          C       0.59201   0.22729   0.78801  -0.10893
C          C       0.76854   0.36386   0.79938  -0.10895
C          C       0.63181   0.40329   0.77249  -0.10655
C          C       0.40539   0.76879   0.71291  -0.10904
C          C       0.22732   0.63327   0.70553  -0.10715
C          C       0.36450   0.59399   0.70690  -0.11224
C          C       0.57315   0.18930   0.75140  -0.19062
C          C       0.80702   0.38259   0.76636  -0.18885
C          C       0.61336   0.42257   0.73292  -0.19240
C          C       0.42517   0.80685   0.74706  -0.18684
C          C       0.18884   0.61447   0.73813  -0.18972
C          C       0.38326   0.57484   0.74339  -0.18859
C          C       0.59083   0.17528   0.65087   0.24676
C          C       0.82196   0.41400   0.66670   0.24845
C          C       0.58183   0.40535   0.63090   0.24907
C          C       0.40825   0.82193   0.84568   0.24673
C          C       0.17384   0.58304   0.83742   0.24648
C          C       0.41454   0.59170   0.84722   0.24475
C          C       0.62736   0.19832   0.59418  -0.19558
C          C       0.79939   0.42755   0.60761  -0.19564
C          C       0.56811   0.36908   0.57329  -0.19706
C          C       0.37167   0.79989   0.90367  -0.19087
C          C       0.19634   0.56953   0.89753  -0.19345
C          C       0.42821   0.62780   0.90670  -0.19031
C          C       0.64563   0.23612   0.63132  -0.12096
C          C       0.76112   0.40844   0.64162  -0.12265
C          C       0.58714   0.35042   0.61284  -0.12264
C          C       0.35238   0.76195   0.86842  -0.12217
C          C       0.23470   0.58885   0.86484  -0.12177
C          C       0.40909   0.64644   0.86929  -0.12112
C          C       0.62797   0.25155   0.72524   0.04919
C          C       0.74472   0.37568   0.73464   0.04966
C          C       0.61978   0.36737   0.71072   0.04887
C          C       0.36914   0.74546   0.77564   0.04933
C          C       0.25114   0.62157   0.77141   0.04789
C          C       0.37626   0.62952   0.77279   0.04983
C          C       0.64620   0.29232   0.74637   0.07914
C          C       0.70342   0.35334   0.75142   0.08169
C          C       0.64183   0.34877   0.73881   0.07933
C          C       0.34995   0.70464   0.75423   0.08138
C          C       0.29242   0.64377   0.75239   0.07915
C          C       0.35383   0.64791   0.75226   0.08028
C          C       0.68542   0.31442   0.75333  -0.18748
C          C       0.68116   0.37001   0.74681  -0.18479
C          C       0.62474   0.30991   0.74104  -0.18687
C          C       0.31065   0.68274   0.75175  -0.18642
C          C       0.31445   0.62680   0.75097  -0.18631
C          C       0.37109   0.68673   0.75192  -0.18558
C          C       0.57964   0.45890   0.53275   0.50833
C          C       0.53735   0.11912   0.54607   0.50658
C          C       0.87851   0.41632   0.56778   0.50388
C          C       0.41505   0.53806   0.95164   0.50495
C          C       0.46195   0.87686   0.95544   0.50648
C          C       0.11805   0.58124   0.94122   0.50716
C          C       0.51492   0.49569   0.78946   0.07545
C          C       0.50398   0.02078   0.79361   0.07764
C          C       0.98467   0.48861   0.79062   0.07494
C          C       0.49164   0.50794   0.70167   0.07447
C          C       0.49265   0.98548   0.70523   0.07103
C          C       0.01950   0.51215   0.69589   0.07648
C          C       0.50029   0.45839   0.83617  -0.13154
C          C       0.54181   0.04501   0.83680  -0.13574
C          C       0.96312   0.50315   0.85874  -0.13366
C          C       0.50774   0.54311   0.62708  -0.13734
C          C       0.45885   0.96670   0.61514  -0.13729
C          C       0.04302   0.49865   0.64126  -0.13804
C          C       0.52205   0.44684   0.91934  -0.08921
C          C       0.55278   0.07774   0.92441  -0.09139
C          C       0.93009   0.48105   0.94512  -0.09166
C          C       0.48591   0.55515   0.54790  -0.09113
C          C       0.44796   0.93297   0.53583  -0.08886
C          C       0.07573   0.52073   0.55280  -0.08840
C          C       0.55970   0.47231   0.95684  -0.04988
C          C       0.52609   0.08755   0.97167  -0.04942
C          C       0.91745   0.44326   0.96931  -0.04994
C          C       0.44683   0.53186   0.53747  -0.04935
C          C       0.47097   0.91708   0.54264  -0.05038
C          C       0.08642   0.55759   0.51583  -0.05055
C          C       0.57474   0.50956   0.91133  -0.08556
C          C       0.48838   0.06406   0.92685  -0.08652
C          C       0.93859   0.42831   0.90318  -0.08571
C          C       0.43038   0.49665   0.60988  -0.09116
C          C       0.50477   0.93552   0.63152  -0.09134
C          C       0.06334   0.57148   0.56911  -0.08553
C          C       0.55266   0.52099   0.83095  -0.13468
C          C       0.47755   0.03123   0.84030  -0.13878
C          C       0.97137   0.45052   0.81585  -0.13396
C          C       0.45231   0.48510   0.69115  -0.12920
C          C       0.51520   0.96894   0.71200  -0.13053
C          C       0.03058   0.54916   0.65605  -0.13247
O          O       0.61945   0.48250   0.04393  -0.43944
O          O       0.51389   0.13315   0.09185  -0.43945
O          O       0.86994   0.38459   0.07328  -0.43974
O          O       0.38782   0.52090   0.43437  -0.44132
O          O       0.48250   0.86882   0.45270  -0.44119
O          O       0.13293   0.61634   0.40886  -0.44105
O          O       0.56658   0.42578   0.09130  -0.26291
O          O       0.57338   0.14117   0.10732  -0.26419
O          O       0.86445   0.43635   0.11601  -0.26337
O          O       0.44000   0.57898   0.40834  -0.25967
O          O       0.42510   0.86335   0.40060  -0.26041
O          O       0.14036   0.56539   0.37528  -0.26393
O          O       0.61325   0.48035   0.55019  -0.44118
O          O       0.51516   0.13006   0.56674  -0.43859
O          O       0.86718   0.38345   0.59088  -0.44183
O          O       0.38128   0.51758   0.93428  -0.44106
O          O       0.48241   0.86357   0.94960  -0.44144
O          O       0.13035   0.61446   0.92533  -0.43888
O          O       0.56127   0.42218   0.58168  -0.26286
O          O       0.57434   0.13801   0.59918  -0.26256
O          O       0.85965   0.43445   0.61722  -0.26313
O          O       0.43461   0.57454   0.89936  -0.26208
O          O       0.42585   0.85963   0.89204  -0.26308
O          O       0.13595   0.56270   0.88429  -0.26307

