data_crystal

_audit_creation_method 'AiiDA-DDEC plugin'

_cell_length_a        36.97877
_cell_length_b        36.57927
_cell_length_c         8.03719

_cell_angle_alpha     91.44630
_cell_angle_beta     89.92440
_cell_angle_gamma     120.31710

_symmetry_space_group_name_Hall 'P 1'
_symmetry_space_group_name_H-M  'P 1'

loop_
_symmetry_equiv_pos_as_xyz
 'x,y,z'

loop_
_atom_site_label
_atom_site_type_symbol
_atom_site_fract_x
_atom_site_fract_y
_atom_site_fract_z
_atom_site_charge
H          H       0.62081   0.46863   0.28792   0.10441
H          H       0.53683   0.15588   0.26291   0.10292
H          H       0.84353   0.38240   0.26063   0.10423
H          H       0.37900   0.53442   0.27833   0.10899
H          H       0.46205   0.84462   0.27636   0.10575
H          H       0.15452   0.61789   0.26872   0.10519
H          H       0.52926   0.36348   0.07444   0.10756
H          H       0.63972   0.16360   0.07555   0.10751
H          H       0.83935   0.47738   0.06963   0.10463
H          H       0.47010   0.63209   0.08877   0.10829
H          H       0.36469   0.83533   0.07122   0.10860
H          H       0.16044   0.52282   0.07037   0.10717
H          H       0.57075   0.32825   0.06220   0.10184
H          H       0.67505   0.24096   0.06127   0.10149
H          H       0.76271   0.43478   0.06131   0.10226
H          H       0.42848   0.66698   0.07592   0.10179
H          H       0.32954   0.75781   0.06649   0.10224
H          H       0.23732   0.56329   0.06318   0.10111
H          H       0.66223   0.43303   0.27026   0.10179
H          H       0.57330   0.23348   0.24210   0.10082
H          H       0.76656   0.34378   0.23687   0.10179
H          H       0.33781   0.57025   0.26439   0.10247
H          H       0.42585   0.76664   0.26361   0.10360
H          H       0.23159   0.65906   0.25652   0.10280
H          H       0.56516   0.47196   0.40869   0.24864
H          H       0.53553   0.09556   0.36180   0.24775
H          H       0.90520   0.44252   0.35833   0.24427
H          H       0.43494   0.53140   0.39408   0.25311
H          H       0.46780   0.90460   0.40924   0.24666
H          H       0.09618   0.56535   0.40246   0.24872
H          H       0.52411   0.42032   0.17011   0.07559
H          H       0.58581   0.10194   0.16893   0.07415
H          H       0.89948   0.48416   0.16228   0.07457
H          H       0.47863   0.57951   0.17339   0.07806
H          H       0.42140   0.89714   0.15706   0.07639
H          H       0.09965   0.51820   0.15804   0.07736
H          H       0.44234   0.42486   0.07627   0.11529
H          H       0.57429   0.01076   0.05839   0.11318
H          H       0.99048   0.56390   0.05465   0.11529
H          H       0.55871   0.57238   0.08287   0.11403
H          H       0.43103   0.98667   0.08865   0.11544
H          H       0.01042   0.44109   0.08978   0.11599
H          H       0.70408   0.41555   0.40759   0.09595
H          H       0.59008   0.29468   0.39881   0.09620
H          H       0.70911   0.30077   0.39442   0.09694
H          H       0.29591   0.58768   0.40941   0.09605
H          H       0.40943   0.70870   0.41559   0.09577
H          H       0.29014   0.70205   0.40713   0.09594
H          H       0.62180   0.57951   0.10531   0.09353
H          H       0.42818   0.04626   0.10640   0.09527
H          H       0.94936   0.37893   0.10375   0.09595
H          H       0.37941   0.41804   0.09094   0.09404
H          H       0.57926   0.95420   0.06517   0.09189
H          H       0.04759   0.62591   0.09589   0.09257
H          H       0.63859   0.55127   0.23302   0.12012
H          H       0.45707   0.08918   0.25303   0.12326
H          H       0.90900   0.36787   0.25189   0.12346
H          H       0.36309   0.44523   0.23309   0.12008
H          H       0.54896   0.90501   0.16735   0.11996
H          H       0.09547   0.64137   0.20621   0.11977
H          H       0.59843   0.56176   0.30442   0.10169
H          H       0.44280   0.03598   0.30479   0.10411
H          H       0.96273   0.40595   0.30333   0.10366
H          H       0.40318   0.43383   0.29354   0.09956
H          H       0.55992   0.95396   0.26984   0.10187
H          H       0.04622   0.60221   0.28989   0.10401
H          H       0.36955   0.35703   0.38033   0.09533
H          H       0.63834   0.01443   0.31941   0.09526
H          H       0.98434   0.63148   0.36574   0.09889
H          H       0.62343   0.63764   0.32621   0.09436
H          H       0.36415   0.99684   0.37526   0.09612
H          H       0.00734   0.36797   0.32450   0.09770
H          H       0.30675   0.29887   0.23469   0.09810
H          H       0.69502   0.01080   0.16693   0.09936
H          H       0.98430   0.69088   0.22239   0.09774
H          H       0.68372   0.69334   0.17245   0.09789
H          H       0.30952   0.00546   0.23083   0.09917
H          H       0.00266   0.30586   0.17053   0.09888
H          H       0.31035   0.23893   0.09811   0.09935
H          H       0.75940   0.07715   0.08867   0.09996
H          H       0.91808   0.68115   0.09976   0.09989
H          H       0.68254   0.75724   0.08123   0.09927
H          H       0.24721   0.94252   0.10233   0.09906
H          H       0.06728   0.30873   0.06501   0.09937
H          H       0.37700   0.23793   0.10534   0.10429
H          H       0.76697   0.14699   0.16547   0.10033
H          H       0.85192   0.61221   0.12538   0.10154
H          H       0.62100   0.76515   0.14434   0.10233
H          H       0.24002   0.87138   0.11797   0.10377
H          H       0.13650   0.37401   0.11255   0.10139
H          H       0.43971   0.29594   0.25236   0.11876
H          H       0.71011   0.15058   0.31685   0.11751
H          H       0.85209   0.55274   0.26839   0.11829
H          H       0.56069   0.70940   0.29837   0.11816
H          H       0.29476   0.86295   0.26274   0.11783
H          H       0.14112   0.43619   0.26604   0.11815
H          H       0.62211   0.46453   0.78254   0.10539
H          H       0.53670   0.15281   0.78553   0.10667
H          H       0.84596   0.38089   0.77554   0.10904
H          H       0.37958   0.53069   0.76874   0.10280
H          H       0.46162   0.83969   0.75940   0.10474
H          H       0.15612   0.61726   0.77499   0.10565
H          H       0.52778   0.36580   0.57274   0.10757
H          H       0.63635   0.16762   0.57966   0.10754
H          H       0.83894   0.47342   0.59829   0.10637
H          H       0.47182   0.63782   0.58382   0.10718
H          H       0.36180   0.83886   0.56960   0.10771
H          H       0.16169   0.52485   0.56253   0.10858
H          H       0.57020   0.33152   0.55981   0.10271
H          H       0.67182   0.24492   0.56094   0.10176
H          H       0.76216   0.43378   0.57731   0.10117
H          H       0.42958   0.67222   0.57572   0.10127
H          H       0.32724   0.76125   0.56448   0.10198
H          H       0.23837   0.56718   0.55749   0.10256
H          H       0.66305   0.42840   0.76767   0.10276
H          H       0.57319   0.23045   0.76649   0.10356
H          H       0.76878   0.33873   0.76424   0.10309
H          H       0.33878   0.56694   0.75222   0.10184
H          H       0.42535   0.76169   0.75187   0.10175
H          H       0.23313   0.65685   0.76445   0.10268
H          H       0.56721   0.46916   0.90267   0.25006
H          H       0.53347   0.09342   0.89688   0.25177
H          H       0.90674   0.44014   0.88033   0.25072
H          H       0.43974   0.53057   0.86651   0.25142
H          H       0.46730   0.90113   0.87507   0.24941
H          H       0.09604   0.56303   0.88727   0.25193
H          H       0.52061   0.42116   0.67100   0.07315
H          H       0.58291   0.10530   0.66789   0.08259
H          H       0.90105   0.48323   0.67393   0.07950
H          H       0.47945   0.58415   0.67034   0.07560
H          H       0.41718   0.90057   0.66423   0.07160
H          H       0.10214   0.51982   0.65651   0.07443
H          H       0.44039   0.42866   0.57501   0.11485
H          H       0.57127   0.01467   0.56394   0.11555
H          H       0.98919   0.56060   0.56957   0.11647
H          H       0.55883   0.57520   0.58812   0.11469
H          H       0.42812   0.99056   0.59419   0.11338
H          H       0.01278   0.43994   0.58866   0.11509
H          H       0.70463   0.41199   0.91052   0.09607
H          H       0.59130   0.29096   0.90683   0.09584
H          H       0.71072   0.29775   0.90594   0.09488
H          H       0.29557   0.58341   0.91157   0.09650
H          H       0.40964   0.70387   0.90634   0.09551
H          H       0.29096   0.69848   0.91003   0.09643
H          H       0.61935   0.58056   0.60326   0.09393
H          H       0.42485   0.04953   0.60600   0.09447
H          H       0.95324   0.37694   0.60041   0.09583
H          H       0.37783   0.42286   0.58649   0.09365
H          H       0.57531   0.95646   0.56560   0.09330
H          H       0.04617   0.62326   0.58625   0.09323
H          H       0.63804   0.55357   0.72848   0.12179
H          H       0.45349   0.09322   0.74957   0.12086
H          H       0.91320   0.36384   0.75150   0.12028
H          H       0.36215   0.45223   0.72012   0.12203
H          H       0.54794   0.91201   0.69761   0.12025
H          H       0.09479   0.64158   0.69635   0.12014
H          H       0.59877   0.56455   0.80753   0.10228
H          H       0.43956   0.04045   0.80622   0.10140
H          H       0.96686   0.40258   0.80206   0.10051
H          H       0.40152   0.44070   0.78901   0.10579
H          H       0.56185   0.96434   0.77235   0.10213
H          H       0.04626   0.60378   0.78902   0.10244
H          H       0.37207   0.35029   0.86919   0.09919
H          H       0.63605   0.00600   0.82623   0.09403
H          H       0.99091   0.63510   0.87619   0.09720
H          H       0.62229   0.63822   0.82195   0.09370
H          H       0.35613   0.98491   0.86236   0.09889
H          H       0.00778   0.36690   0.81587   0.09684
H          H       0.31238   0.29178   0.71016   0.09836
H          H       0.69083   0.99889   0.67380   0.09916
H          H       0.99667   0.69761   0.73538   0.09780
H          H       0.68136   0.69598   0.67083   0.09947
H          H       0.29867   0.98565   0.70522   0.10029
H          H       0.00483   0.30677   0.65293   0.09857
H          H       0.32024   0.23419   0.57523   0.09854
H          H       0.75530   0.06334   0.58097   0.09955
H          H       0.93376   0.69278   0.60029   0.09875
H          H       0.67827   0.75980   0.59293   0.09992
H          H       0.23941   0.91844   0.58790   0.10020
H          H       0.07065   0.31151   0.55064   0.09903
H          H       0.38816   0.23595   0.59711   0.10091
H          H       0.76461   0.13456   0.64197   0.10348
H          H       0.86568   0.62526   0.60355   0.10404
H          H       0.61619   0.76570   0.66949   0.10058
H          H       0.23748   0.85031   0.63129   0.10100
H          H       0.13919   0.37612   0.61555   0.10316
H          H       0.44799   0.29483   0.75466   0.11884
H          H       0.70971   0.14152   0.79458   0.11848
H          H       0.85991   0.56285   0.74548   0.11882
H          H       0.55681   0.70752   0.81834   0.11872
H          H       0.29547   0.84975   0.78520   0.12009
H          H       0.14205   0.43633   0.77819   0.11764
C          C       0.61013   0.43890   0.35077  -0.20848
C          C       0.56602   0.17557   0.33159  -0.20778
C          C       0.82560   0.39334   0.33213  -0.20660
C          C       0.38958   0.56430   0.34647  -0.20442
C          C       0.43287   0.82623   0.34291  -0.20480
C          C       0.17314   0.60740   0.33536  -0.20652
C          C       0.57160   0.42032   0.43405   0.22222
C          C       0.58304   0.15588   0.42666   0.22649
C          C       0.84709   0.43017   0.43418   0.22439
C          C       0.42798   0.58295   0.43435   0.22494
C          C       0.41524   0.84756   0.42749   0.21950
C          C       0.15244   0.56904   0.42004   0.22252
C          C       0.55719   0.38083   0.50621  -0.20516
C          C       0.62216   0.18161   0.50546  -0.20880
C          C       0.82354   0.44518   0.51806  -0.20956
C          C       0.44245   0.62265   0.51391  -0.20711
C          C       0.37626   0.82339   0.50318  -0.20197
C          C       0.17664   0.55428   0.49568  -0.20447
C          C       0.58106   0.36113   0.49633  -0.11034
C          C       0.64254   0.22553   0.49264  -0.11226
C          C       0.77990   0.42290   0.50434  -0.11385
C          C       0.41867   0.64243   0.50682  -0.11072
C          C       0.35636   0.77926   0.49756  -0.11148
C          C       0.22025   0.57812   0.49035  -0.11085
C          C       0.61947   0.37922   0.41338   0.03444
C          C       0.62543   0.24555   0.40155   0.02867
C          C       0.75816   0.38555   0.40667   0.03044
C          C       0.38033   0.62420   0.41957   0.03231
C          C       0.37372   0.75758   0.41468   0.03419
C          C       0.24133   0.61670   0.40833   0.03271
C          C       0.63337   0.41868   0.34080  -0.11348
C          C       0.58673   0.21933   0.32001  -0.11393
C          C       0.78222   0.37159   0.31948  -0.11433
C          C       0.36646   0.58460   0.33919  -0.11174
C          C       0.41242   0.78225   0.33636  -0.11383
C          C       0.21658   0.63054   0.32926  -0.11415
C          C       0.51593   0.42742   0.04706   0.14434
C          C       0.57536   0.08477   0.04719   0.15171
C          C       0.91602   0.49087   0.04211   0.15198
C          C       0.48517   0.56952   0.05109   0.14964
C          C       0.42903   0.91292   0.03542   0.14567
C          C       0.08361   0.51137   0.03505   0.14691
C          C       0.50860   0.46461   0.07525  -0.01471
C          C       0.53769   0.04060   0.07519  -0.01889
C          C       0.95952   0.49685   0.07206  -0.02629
C          C       0.49240   0.53258   0.08043  -0.01776
C          C       0.46759   0.95684   0.06505  -0.01138
C          C       0.04118   0.50792   0.06544  -0.00948
C          C       0.46782   0.45753   0.08363  -0.25704
C          C       0.54262   0.00517   0.06984  -0.25132
C          C       0.99513   0.53703   0.06753  -0.24622
C          C       0.53324   0.53972   0.08727  -0.25363
C          C       0.46279   0.99221   0.08623  -0.24892
C          C       0.00568   0.46804   0.08605  -0.25264
C          C       0.54158   0.50662   0.09757   0.17444
C          C       0.49700   0.03336   0.10239   0.17679
C          C       0.96564   0.46256   0.10143   0.18077
C          C       0.45946   0.49068   0.09997   0.18192
C          C       0.50861   0.96388   0.07511   0.17607
C          C       0.03556   0.54317   0.07673   0.17526
C          C       0.64413   0.35768   0.40316   0.08182
C          C       0.64701   0.29221   0.39542   0.08724
C          C       0.71192   0.36103   0.39933   0.08617
C          C       0.35557   0.64562   0.41256   0.08575
C          C       0.35230   0.71083   0.41039   0.08355
C          C       0.28754   0.64186   0.40679   0.08522
C          C       0.68810   0.38111   0.40300  -0.19802
C          C       0.62412   0.31328   0.39792  -0.19549
C          C       0.69088   0.31659   0.39494  -0.19454
C          C       0.31163   0.62207   0.40895  -0.19257
C          C       0.37540   0.68999   0.41249  -0.19520
C          C       0.30841   0.68628   0.40752  -0.19553
C          C       0.61164   0.55408   0.19537  -0.18746
C          C       0.45252   0.05888   0.20456  -0.19084
C          C       0.93891   0.39254   0.20326  -0.18806
C          C       0.38990   0.44268   0.19027  -0.18880
C          C       0.55298   0.93646   0.14979  -0.18195
C          C       0.06411   0.61483   0.17537  -0.18481
C          C       0.47535   0.39295   0.47790  -0.07576
C          C       0.60774   0.08526   0.47540  -0.08804
C          C       0.91836   0.52475   0.47541  -0.09364
C          C       0.52383   0.60957   0.47977  -0.08182
C          C       0.39165   0.92032   0.47561  -0.07231
C          C       0.08095   0.47309   0.46438  -0.07586
C          C       0.44459   0.36377   0.40930  -0.12411
C          C       0.63703   0.08448   0.40926  -0.12475
C          C       0.91837   0.55404   0.40634  -0.12436
C          C       0.55360   0.63772   0.40874  -0.12057
C          C       0.36432   0.92442   0.40970  -0.12724
C          C       0.07763   0.44178   0.39289  -0.12574
C          C       0.40881   0.33035   0.32663   0.14161
C          C       0.67022   0.08272   0.32759   0.14363
C          C       0.91828   0.58807   0.32588   0.14087
C          C       0.58819   0.66995   0.32350   0.14425
C          C       0.33294   0.92926   0.32915   0.14303
C          C       0.07462   0.40608   0.30638   0.14297
C          C       0.37093   0.33086   0.31958  -0.14201
C          C       0.66654   0.04332   0.28476  -0.13879
C          C       0.95555   0.62742   0.31162  -0.13965
C          C       0.62322   0.66573   0.28629  -0.14308
C          C       0.33688   0.96957   0.31844  -0.14382
C          C       0.03546   0.36906   0.27748  -0.14131
C          C       0.33575   0.29807   0.23888  -0.10419
C          C       0.69853   0.04143   0.20064  -0.09727
C          C       0.95528   0.66072   0.23246  -0.09741
C          C       0.65703   0.69713   0.20129  -0.09740
C          C       0.30609   0.97420   0.23841  -0.10485
C          C       0.03301   0.33425   0.19224  -0.10025
C          C       0.33766   0.26431   0.16273  -0.09896
C          C       0.73480   0.07868   0.15721  -0.09864
C          C       0.91805   0.65546   0.16510  -0.09957
C          C       0.65653   0.73318   0.15084  -0.09804
C          C       0.27097   0.93887   0.16684  -0.09958
C          C       0.06932   0.33573   0.13349  -0.09793
C          C       0.37517   0.26373   0.16717  -0.08969
C          C       0.73890   0.11793   0.19979  -0.09276
C          C       0.88091   0.61655   0.17857  -0.09094
C          C       0.62182   0.73751   0.18604  -0.09195
C          C       0.26695   0.89884   0.17562  -0.09041
C          C       0.10823   0.37246   0.16010  -0.09043
C          C       0.41048   0.29630   0.24832  -0.12763
C          C       0.70704   0.12012   0.28379  -0.13186
C          C       0.88085   0.58309   0.25792  -0.13230
C          C       0.58785   0.70629   0.27121  -0.12986
C          C       0.29756   0.89393   0.25568  -0.12705
C          C       0.11102   0.40742   0.24527  -0.12915
C          C       0.61136   0.43505   0.84715  -0.20369
C          C       0.56666   0.17233   0.84933  -0.20773
C          C       0.82756   0.39213   0.84161  -0.20289
C          C       0.38982   0.56022   0.83880  -0.21031
C          C       0.43304   0.82168   0.82978  -0.20555
C          C       0.17401   0.60595   0.84182  -0.20709
C          C       0.57304   0.41718   0.93144   0.22285
C          C       0.58499   0.15244   0.93434   0.22770
C          C       0.84841   0.43176   0.92598   0.22392
C          C       0.42724   0.57798   0.93327   0.22601
C          C       0.41634   0.84347   0.91760   0.22199
C          C       0.15254   0.56754   0.92575   0.22458
C          C       0.55847   0.37798   0.00656  -0.20639
C          C       0.62482   0.17789   0.00765  -0.20920
C          C       0.82424   0.44704   0.00236  -0.20893
C          C       0.44135   0.61741   0.01496  -0.21050
C          C       0.37831   0.81964   0.00053  -0.20505
C          C       0.17606   0.55211   0.00274  -0.20580
C          C       0.58192   0.35780  -0.00228  -0.11166
C          C       0.64504   0.22186  -0.00252  -0.10889
C          C       0.78064   0.42298   0.99532  -0.10717
C          C       0.41789   0.63743   0.00563  -0.11035
C          C       0.35815   0.77552  -0.00380  -0.11196
C          C       0.21972   0.57497  -0.00319  -0.11084
C          C       0.62026   0.37537   0.91437   0.03329
C          C       0.62705   0.24214   0.91367   0.03123
C          C       0.75941   0.38332   0.91204   0.03274
C          C       0.38012   0.61965   0.91477   0.02953
C          C       0.37456   0.75343   0.90973   0.03310
C          C       0.24151   0.61346   0.91430   0.03070
C          C       0.63433   0.41455   0.83903  -0.11512
C          C       0.58738   0.21613   0.83900  -0.11007
C          C       0.78408   0.36860   0.83508  -0.11259
C          C       0.36688   0.58069   0.83019  -0.11411
C          C       0.41255   0.77769   0.82613  -0.11593
C          C       0.21744   0.62820   0.83620  -0.11325
C          C       0.51339   0.42951   0.54840   0.14870
C          C       0.57256   0.08833   0.54582   0.14976
C          C       0.91599   0.48746   0.55094   0.14560
C          C       0.48596   0.57400   0.54846   0.15113
C          C       0.42641   0.91671   0.54343   0.14418
C          C       0.08511   0.51229   0.53558   0.14466
C          C       0.50682   0.46723   0.57808  -0.01179
C          C       0.53470   0.04455   0.57677  -0.01852
C          C       0.95953   0.49346   0.58069  -0.01636
C          C       0.49240   0.53647   0.57737  -0.02015
C          C       0.46471   0.96076   0.57594  -0.01248
C          C       0.04205   0.50691   0.57039  -0.01378
C          C       0.46639   0.46106   0.58224  -0.25050
C          C       0.53965   0.00916   0.57646  -0.25072
C          C       0.99457   0.53415   0.57927  -0.25181
C          C       0.53289   0.54276   0.58949  -0.25180
C          C       0.45990   0.99620   0.59267  -0.25927
C          C       0.00728   0.46645   0.58944  -0.25943
C          C       0.54024   0.50903   0.60201   0.17811
C          C       0.49406   0.03751   0.60520   0.17918
C          C       0.96675   0.45967   0.60743   0.18410
C          C       0.45893   0.49482   0.59352   0.17414
C          C       0.50574   0.96802   0.58859   0.17527
C          C       0.03537   0.54136   0.58602   0.17312
C          C       0.64506   0.35395   0.90778   0.08633
C          C       0.64848   0.28878   0.90658   0.08539
C          C       0.71317   0.35788   0.90699   0.08423
C          C       0.35547   0.64115   0.90915   0.08573
C          C       0.35282   0.70668   0.90757   0.08412
C          C       0.28774   0.63797   0.90986   0.08470
C          C       0.68900   0.37758   0.90783  -0.19387
C          C       0.62533   0.30960   0.90606  -0.19436
C          C       0.69237   0.31343   0.90562  -0.19739
C          C       0.31151   0.61782   0.90958  -0.19701
C          C       0.37559   0.68551   0.90720  -0.19637
C          C       0.30894   0.68240   0.90876  -0.19492
C          C       0.61058   0.55601   0.69630  -0.18755
C          C       0.44930   0.06283   0.70392  -0.18694
C          C       0.94264   0.38951   0.70335  -0.19075
C          C       0.38857   0.44852   0.68151  -0.18522
C          C       0.55165   0.94250   0.66340  -0.18831
C          C       0.06344   0.61427   0.67163  -0.18400
C          C       0.47808   0.39006   0.98045  -0.07575
C          C       0.61018   0.08159   0.97496  -0.07984
C          C       0.91900   0.52931   0.97521  -0.08469
C          C       0.52251   0.60567   0.98127  -0.08785
C          C       0.39305   0.91596   0.97763  -0.08093
C          C       0.07867   0.47161   0.96508  -0.08196
C          C       0.44822   0.36029   0.91013  -0.12628
C          C       0.63761   0.07825   0.90463  -0.12088
C          C       0.92165   0.55957   0.90412  -0.11556
C          C       0.55156   0.63522   0.91243  -0.12530
C          C       0.36352   0.91684   0.91522  -0.12470
C          C       0.07679   0.44075   0.89505  -0.12509
C          C       0.41389   0.32629   0.82318   0.14261
C          C       0.66923   0.07426   0.82033   0.14347
C          C       0.92491   0.59503   0.82226   0.13998
C          C       0.58552   0.66888   0.82978   0.14476
C          C       0.32979   0.91731   0.83343   0.14264
C          C       0.07508   0.40574   0.80726   0.14301
C          C       0.37529   0.32512   0.80915  -0.13940
C          C       0.66426   0.03397   0.78506  -0.14364
C          C       0.96365   0.63329   0.81647  -0.14159
C          C       0.62114   0.66617   0.78734  -0.14108
C          C       0.33020   0.95561   0.81049  -0.13775
C          C       0.03639   0.36871   0.77118  -0.14297
C          C       0.34184   0.29206   0.72137  -0.09880
C          C       0.69516   0.03015   0.70077  -0.10182
C          C       0.96666   0.66826   0.73839  -0.10448
C          C       0.65433   0.69879   0.70416  -0.09832
C          C       0.29772   0.95582   0.72373  -0.09705
C          C       0.03493   0.33497   0.68099  -0.09813
C          C       0.34617   0.25965   0.64585  -0.09772
C          C       0.73147   0.06631   0.64927  -0.09780
C          C       0.93133   0.66568   0.66323  -0.09773
C          C       0.65276   0.73479   0.66138  -0.09783
C          C       0.26425   0.91803   0.65864  -0.09834
C          C       0.07187   0.33744   0.62451  -0.09844
C          C       0.38440   0.26067   0.65823  -0.08913
C          C       0.73664   0.10637   0.68322  -0.09137
C          C       0.89297   0.62767   0.66548  -0.08879
C          C       0.61765   0.73787   0.70326  -0.09245
C          C       0.26337   0.87981   0.68205  -0.09240
C          C       0.11040   0.37394   0.66016  -0.09304
C          C       0.41806   0.29362   0.74569  -0.13485
C          C       0.70593   0.11048   0.76776  -0.12742
C          C       0.88961   0.59257   0.74401  -0.12758
C          C       0.58423   0.70532   0.78605  -0.13185
C          C       0.29576   0.87929   0.76809  -0.13646
C          C       0.11218   0.40784   0.75035  -0.12932
N          N       0.54827   0.44072   0.43378  -0.37094
N          N       0.56064   0.11218   0.43909  -0.37050
N          N       0.89036   0.44905   0.45097  -0.37084
N          N       0.45090   0.56223   0.43294  -0.36869
N          N       0.43651   0.89188   0.42470  -0.37136
N          N       0.10862   0.54648   0.41820  -0.37232
N          N       0.55017   0.43803   0.92972  -0.36816
N          N       0.56378   0.10838   0.93592  -0.37407
N          N       0.89197   0.45531   0.92492  -0.36570
N          N       0.44888   0.55629   0.94293  -0.36863
N          N       0.43708   0.88761   0.91181  -0.36578
N          N       0.10889   0.54552   0.92113  -0.36773
O          O       0.58173   0.51348   0.12418  -0.17236
O          O       0.49257   0.06814   0.14135  -0.16765
O          O       0.93078   0.42426   0.14149  -0.16612
O          O       0.41971   0.48383   0.13237  -0.16869
O          O       0.51384   0.92892   0.08279  -0.17370
O          O       0.07068   0.58353   0.09164  -0.17885
O          O       0.57984   0.51492   0.63246  -0.16932
O          O       0.48935   0.07212   0.64167  -0.16523
O          O       0.93310   0.42080   0.64929  -0.16334
O          O       0.41901   0.48871   0.61710  -0.17160
O          O       0.51104   0.93328   0.60723  -0.17066
O          O       0.07025   0.58198   0.59988  -0.17774

