data_crystal

_audit_creation_method 'AiiDA-DDEC plugin'

_cell_length_a        37.02910
_cell_length_b        36.67920
_cell_length_c         8.95878

_cell_angle_alpha     90.01639
_cell_angle_beta     91.55818
_cell_angle_gamma     120.22263

_symmetry_space_group_name_Hall 'P 1'
_symmetry_space_group_name_H-M  'P 1'

loop_
_symmetry_equiv_pos_as_xyz
 'x,y,z'

loop_
_atom_site_label
_atom_site_type_symbol
_atom_site_fract_x
_atom_site_fract_y
_atom_site_fract_z
_atom_site_charge
H          H       0.61653   0.46334   0.48666   0.10412
H          H       0.54393   0.15557   0.47609   0.10537
H          H       0.84997   0.38636   0.47757   0.10555
H          H       0.38424   0.53469   0.47016   0.10563
H          H       0.46143   0.84652   0.48864   0.10430
H          H       0.15468   0.61414   0.46712   0.10515
H          H       0.53706   0.36712   0.16346   0.10832
H          H       0.63514   0.16909   0.15876   0.10812
H          H       0.83567   0.47347   0.19468   0.10927
H          H       0.46531   0.63313   0.17509   0.10850
H          H       0.36515   0.83020   0.16888   0.10883
H          H       0.16674   0.52869   0.17042   0.10907
H          H       0.57883   0.33292   0.20055   0.10267
H          H       0.67082   0.24598   0.19315   0.10265
H          H       0.75974   0.43275   0.22447   0.10280
H          H       0.42495   0.66856   0.21185   0.10316
H          H       0.33016   0.75355   0.20128   0.10264
H          H       0.24311   0.56993   0.20813   0.10335
H          H       0.65732   0.42770   0.52706   0.10479
H          H       0.58160   0.23252   0.51691   0.10586
H          H       0.77395   0.34739   0.51548   0.10533
H          H       0.34545   0.57184   0.51282   0.10556
H          H       0.42489   0.76967   0.52577   0.10509
H          H       0.23113   0.65400   0.50989   0.10557
H          H       0.56645   0.46839   0.34789   0.24093
H          H       0.53532   0.09961   0.34078   0.23766
H          H       0.90440   0.43653   0.35173   0.23896
H          H       0.43286   0.52923   0.33724   0.23935
H          H       0.46620   0.90245   0.35819   0.24369
H          H       0.09851   0.56234   0.34092   0.23876
H          H       0.55354   0.44987   0.07692   0.06889
H          H       0.54985   0.10145   0.07146   0.06656
H          H       0.89631   0.44817   0.08623   0.06564
H          H       0.44704   0.54866   0.07414   0.06531
H          H       0.44671   0.89454   0.08524   0.06817
H          H       0.10138   0.54906   0.07115   0.06717
H          H       0.45025   0.42269   0.18182   0.11381
H          H       0.57447   0.02274   0.15777   0.11272
H          H       0.97812   0.55232   0.16785   0.11306
H          H       0.55067   0.57610   0.16794   0.11265
H          H       0.42417   0.97508   0.19664   0.11440
H          H       0.02255   0.44566   0.18342   0.11565
H          H       0.70580   0.41480   0.38584   0.09914
H          H       0.59318   0.29359   0.37391   0.09955
H          H       0.71294   0.30150   0.36796   0.09914
H          H       0.29815   0.58636   0.37601   0.09932
H          H       0.41084   0.70748   0.37967   0.09849
H          H       0.29132   0.70002   0.37676   0.09923
H          H       0.61202   0.58824   0.09420   0.09408
H          H       0.41411   0.02767   0.11555   0.09993
H          H       0.96485   0.38304   0.09693   0.10032
H          H       0.38747   0.41202   0.09660   0.09820
H          H       0.57585   0.96811   0.03809   0.10085
H          H       0.03252   0.61579   0.09501   0.09657
H          H       0.64559   0.57212   0.18308   0.11776
H          H       0.43213   0.07641   0.21663   0.11748
H          H       0.92097   0.35320   0.21354   0.11851
H          H       0.35538   0.42736   0.19386   0.11816
H          H       0.56620   0.92131   0.13526   0.11826
H          H       0.08097   0.64512   0.19940   0.11773
H          H       0.61050   0.58093   0.29190   0.10337
H          H       0.42178   0.02959   0.31466   0.09785
H          H       0.97173   0.38824   0.29607   0.09872
H          H       0.39082   0.41601   0.29641   0.10116
H          H       0.58502   0.97013   0.23629   0.09738
H          H       0.03395   0.60993   0.29327   0.10079
H          H       0.48351   0.30506   0.48260   0.11978
H          H       0.69122   0.17961   0.45319   0.11859
H          H       0.81904   0.51567   0.51571   0.11646
H          H       0.50877   0.68909   0.44654   0.11705
H          H       0.30341   0.82548   0.46628   0.11958
H          H       0.17226   0.48152   0.44339   0.11799
H          H       0.43710   0.24153   0.32611   0.10281
H          H       0.75119   0.19636   0.29304   0.10355
H          H       0.79395   0.55532   0.36154   0.10232
H          H       0.55188   0.75095   0.28869   0.10363
H          H       0.24318   0.81184   0.29828   0.10260
H          H       0.18795   0.43642   0.28190   0.10335
H          H       0.37369   0.23510   0.19654   0.10106
H          H       0.76139   0.13869   0.19563   0.10111
H          H       0.84456   0.61738   0.21619   0.09950
H          H       0.62058   0.76392   0.20035   0.10132
H          H       0.23996   0.87187   0.18213   0.10199
H          H       0.13009   0.36804   0.17963   0.10255
H          H       0.35690   0.29231   0.22471   0.09936
H          H       0.71243   0.06441   0.26461   0.09981
H          H       0.91970   0.63867   0.22361   0.10207
H          H       0.64613   0.71527   0.27371   0.09885
H          H       0.29635   0.94550   0.23886   0.09843
H          H       0.05666   0.34445   0.24345   0.09902
H          H       0.40267   0.35526   0.38557   0.09521
H          H       0.65315   0.04776   0.42949   0.09758
H          H       0.94489   0.59949   0.38020   0.10147
H          H       0.60351   0.65405   0.43492   0.09736
H          H       0.35640   0.95914   0.40837   0.09358
H          H       0.04108   0.38939   0.40723   0.09567
H          H       0.62201   0.46811   0.96680   0.10567
H          H       0.53830   0.15496   0.95330   0.10547
H          H       0.84890   0.38586   0.97654   0.10473
H          H       0.38236   0.53613   0.95955   0.10575
H          H       0.46532   0.84697   0.96658   0.10490
H          H       0.15251   0.61345   0.96285   0.10559
H          H       0.52937   0.36291   0.70148   0.10839
H          H       0.64031   0.16863   0.69336   0.10912
H          H       0.83341   0.47172   0.69081   0.10763
H          H       0.46782   0.63788   0.68535   0.10914
H          H       0.36116   0.83481   0.70048   0.10960
H          H       0.16557   0.52764   0.67178   0.11032
H          H       0.57094   0.32813   0.72898   0.10264
H          H       0.67516   0.24559   0.72613   0.10373
H          H       0.75760   0.43092   0.72437   0.10167
H          H       0.42643   0.67260   0.71519   0.10265
H          H       0.32502   0.75806   0.72863   0.10229
H          H       0.24201   0.57067   0.70399   0.10324
H          H       0.66194   0.43149   0.00343   0.10500
H          H       0.57522   0.23195  -0.00275   0.10556
H          H       0.77317   0.34667   0.01665   0.10540
H          H       0.34216   0.57220   0.99588   0.10603
H          H       0.42785   0.77004   0.00164   0.10533
H          H       0.22902   0.65489   0.00207   0.10517
H          H       0.56881   0.47076   0.85054   0.23775
H          H       0.53525   0.09934   0.83838   0.23587
H          H       0.90326   0.43663   0.85219   0.23929
H          H       0.43432   0.53348   0.84597   0.23705
H          H       0.46792   0.90370   0.85578   0.24233
H          H       0.09700   0.56152   0.83903   0.23766
H          H       0.55381   0.45366   0.58493   0.06538
H          H       0.55163   0.10352   0.57269   0.06408
H          H       0.89536   0.44887   0.58578   0.06798
H          H       0.44624   0.54933   0.57919   0.06569
H          H       0.44878   0.89639   0.58665   0.06352
H          H       0.09989   0.54905   0.56924   0.06526
H          H       0.44985   0.42461   0.68256   0.11369
H          H       0.57659   0.02476   0.66264   0.11342
H          H       0.97712   0.55289   0.67718   0.11353
H          H       0.55035   0.57824   0.69270   0.11388
H          H       0.42586   0.97690   0.68603   0.11346
H          H       0.02063   0.44550   0.67229   0.11365
H          H       0.70440   0.41409   0.87946   0.09778
H          H       0.59170   0.29297   0.87308   0.09787
H          H       0.71139   0.30070   0.88305   0.09773
H          H       0.29686   0.58839   0.86253   0.09877
H          H       0.40945   0.70932   0.87432   0.09752
H          H       0.28961   0.70161   0.87267   0.09831
H          H       0.61348   0.59001   0.63096   0.10013
H          H       0.41648   0.02919   0.59539   0.09615
H          H       0.96325   0.38288   0.58883   0.09815
H          H       0.38535   0.41349   0.61075   0.09954
H          H       0.57735   0.96943   0.54374   0.10275
H          H       0.02989   0.61373   0.58938   0.09893
H          H       0.64485   0.57434   0.73900   0.11819
H          H       0.43331   0.07793   0.69435   0.11864
H          H       0.91845   0.35307   0.70096   0.11855
H          H       0.35541   0.42945   0.71855   0.11880
H          H       0.56818   0.92295   0.64218   0.11829
H          H       0.07896   0.64546   0.68893   0.11840
H          H       0.60701   0.58324   0.82838   0.09726
H          H       0.42234   0.03124   0.79521   0.10226
H          H       0.96863   0.38760   0.78861   0.10041
H          H       0.39276   0.41868   0.80974   0.10076
H          H       0.58743   0.97210   0.74143   0.09702
H          H       0.03272   0.61133   0.78896   0.09918
H          H       0.48099   0.30067   0.99201   0.11825
H          H       0.69243   0.17447   0.96352   0.11697
H          H       0.82700   0.52359   0.97292   0.11971
H          H       0.51188   0.69193   0.96608   0.11724
H          H       0.29966   0.82060   0.98631   0.11796
H          H       0.17517   0.48055   0.96333   0.11712
H          H       0.43581   0.23738   0.83265   0.10150
H          H       0.75171   0.18919   0.80229   0.10384
H          H       0.81307   0.57022   0.80970   0.10275
H          H       0.55373   0.75165   0.79817   0.10414
H          H       0.23841   0.80423   0.81896   0.10152
H          H       0.19151   0.43632   0.79929   0.10256
H          H       0.37381   0.23156   0.69347   0.10064
H          H       0.75811   0.12979   0.69764   0.10248
H          H       0.87214   0.63322   0.69614   0.10192
H          H       0.61869   0.75995   0.68972   0.10184
H          H       0.23458   0.86229   0.68823   0.10124
H          H       0.13373   0.37140   0.67550   0.10183
H          H       0.35708   0.28893   0.71647   0.10085
H          H       0.70538   0.05585   0.75760   0.09919
H          H       0.94520   0.65007   0.74981   0.09860
H          H       0.64208   0.70900   0.75376   0.09871
H          H       0.29206   0.93643   0.72629   0.09916
H          H       0.05989   0.35070   0.71879   0.09831
H          H       0.40209   0.35199   0.87756   0.09638
H          H       0.64639   0.04123   0.92072   0.09502
H          H       0.95924   0.60368   0.91456   0.09587
H          H       0.60038   0.64949   0.92351   0.09471
H          H       0.35319   0.95262   0.89425   0.09733
H          H       0.04366   0.39426   0.88702   0.09685
C          C       0.60791   0.43446   0.42410  -0.21354
C          C       0.57188   0.17532   0.41348  -0.21443
C          C       0.83025   0.39680   0.42217  -0.21370
C          C       0.39351   0.56431   0.41367  -0.21328
C          C       0.43230   0.82625   0.42628  -0.21327
C          C       0.17402   0.60427   0.40994  -0.21310
C          C       0.57333   0.41785   0.32263   0.22478
C          C       0.58644   0.15614   0.31388   0.22607
C          C       0.84868   0.43272   0.33157   0.22404
C          C       0.42805   0.58111   0.31975   0.22239
C          C       0.41585   0.84447   0.32719   0.22382
C          C       0.15477   0.56827   0.31553   0.22628
C          C       0.56286   0.38034   0.24486  -0.19586
C          C       0.62318   0.18254   0.23772  -0.19629
C          C       0.82248   0.44593   0.26487  -0.18976
C          C       0.43942   0.61962   0.25022  -0.19435
C          C       0.37820   0.81735   0.24863  -0.19629
C          C       0.18052   0.55590   0.24542  -0.19634
C          C       0.58641   0.36078   0.26745  -0.11824
C          C       0.64376   0.22618   0.25949  -0.12028
C          C       0.77947   0.42304   0.28388  -0.11873
C          C       0.41676   0.63993   0.27308  -0.12072
C          C       0.35816   0.77391   0.26887  -0.11800
C          C       0.22373   0.57906   0.26872  -0.11989
C          C       0.62107   0.37721   0.36759   0.03354
C          C       0.62931   0.24550   0.35800   0.03102
C          C       0.76070   0.38660   0.37121   0.03496
C          C       0.38224   0.62335   0.36611   0.03382
C          C       0.37432   0.75549   0.36762   0.03384
C          C       0.24321   0.61505   0.36241   0.03385
C          C       0.63119   0.41451   0.44622  -0.11927
C          C       0.59295   0.21888   0.43571  -0.11681
C          C       0.78726   0.37448   0.44230  -0.11792
C          C       0.37132   0.58509   0.43684  -0.11760
C          C       0.41185   0.78277   0.44643  -0.11897
C          C       0.21724   0.62699   0.43331  -0.11721
C          C       0.52982   0.43857   0.16331   0.14648
C          C       0.56175   0.08936   0.16141   0.15235
C          C       0.91116   0.47309   0.17316   0.14879
C          C       0.47080   0.56010   0.16599   0.15374
C          C       0.43672   0.90857   0.17200   0.14725
C          C       0.08900   0.52508   0.15893   0.15142
C          C       0.51446   0.46999   0.17238  -0.01673
C          C       0.52962   0.04244   0.17538  -0.01727
C          C       0.95753   0.48684   0.18004  -0.01541
C          C       0.48651   0.52884   0.17581  -0.01855
C          C       0.46915   0.95543   0.18093  -0.01893
C          C       0.04293   0.51116   0.17165  -0.02077
C          C       0.47191   0.45648   0.18029  -0.24475
C          C       0.54147   0.01186   0.16936  -0.24664
C          C       0.98839   0.52937   0.17505  -0.24604
C          C       0.52910   0.54235   0.17276  -0.24282
C          C       0.45735   0.98598   0.19157  -0.24294
C          C       0.01227   0.46867   0.18171  -0.24258
C          C       0.54320   0.51349   0.17019   0.17549
C          C       0.48696   0.02899   0.18817   0.17349
C          C       0.96998   0.45643   0.18734   0.17462
C          C       0.45781   0.48532   0.18124   0.17655
C          C       0.51184   0.96884   0.17196   0.17472
C          C       0.03068   0.54169   0.17279   0.17558
C          C       0.64649   0.35657   0.38086   0.08474
C          C       0.65059   0.29198   0.37355   0.08438
C          C       0.71472   0.36110   0.38060   0.08327
C          C       0.35742   0.64446   0.38021   0.08352
C          C       0.35348   0.70912   0.38040   0.08571
C          C       0.28927   0.64019   0.37800   0.08302
C          C       0.69035   0.38051   0.38466  -0.19870
C          C       0.62715   0.31238   0.37783  -0.19666
C          C       0.69437   0.31681   0.37518  -0.19901
C          C       0.31356   0.62065   0.37988  -0.19852
C          C       0.37691   0.68866   0.38209  -0.19940
C          C       0.30974   0.68445   0.38001  -0.19703
C          C       0.61470   0.56927   0.18431  -0.18226
C          C       0.43358   0.04734   0.21094  -0.18023
C          C       0.95005   0.38329   0.20147  -0.18136
C          C       0.38604   0.42964   0.19349  -0.18128
C          C       0.56486   0.95041   0.14217  -0.18115
C          C       0.05141   0.61506   0.19056  -0.17972
C          C       0.49657   0.39764   0.10653  -0.06724
C          C       0.60136   0.09550   0.10853  -0.06724
C          C       0.90494   0.50705   0.11857  -0.06755
C          C       0.50354   0.60129   0.11687  -0.07362
C          C       0.39636   0.90187   0.11620  -0.07168
C          C       0.09474   0.49103   0.10288  -0.07648
C          C       0.47108   0.36669   0.03481  -0.11502
C          C       0.63113   0.09925   0.04118  -0.11236
C          C       0.90121   0.53312   0.04622  -0.11323
C          C       0.52823   0.63185   0.04718  -0.10917
C          C       0.36574   0.89659   0.04378  -0.11382
C          C       0.09953   0.46591   0.02957  -0.11047
C          C       0.44563   0.33393   0.44716   0.14117
C          C       0.66855   0.11261   0.45394   0.14258
C          C       0.88379   0.55568   0.46198   0.14121
C          C       0.55357   0.66789   0.45386   0.14224
C          C       0.33362   0.89322   0.45003   0.14217
C          C       0.10567   0.43826   0.43750   0.14291
C          C       0.45533   0.30163   0.42803  -0.12221
C          C       0.69660   0.15468   0.41438  -0.12547
C          C       0.84095   0.54318   0.45401  -0.12567
C          C       0.53925   0.69558   0.41072  -0.12388
C          C       0.30128   0.85155   0.41775  -0.12287
C          C       0.14723   0.45120   0.40097  -0.12325
C          C       0.42927   0.26620   0.33964  -0.09652
C          C       0.73003   0.16384   0.32374  -0.09486
C          C       0.82709   0.56548   0.36713  -0.09959
C          C       0.56349   0.73006   0.32152  -0.09421
C          C       0.26767   0.84414   0.32331  -0.09415
C          C       0.15579   0.42582   0.31008  -0.09228
C          C       0.39359   0.26249   0.26718  -0.09750
C          C       0.73598   0.13150   0.26987  -0.09922
C          C       0.85544   0.60030   0.28563  -0.10379
C          C       0.60213   0.73748   0.27245  -0.09928
C          C       0.26568   0.87785   0.25884  -0.09775
C          C       0.12333   0.38729   0.25323  -0.09947
C          C       0.38412   0.29467   0.28335  -0.09699
C          C       0.70826   0.08970   0.30814  -0.09876
C          C       0.89783   0.61246   0.29057  -0.09615
C          C       0.61641   0.70999   0.31339  -0.09981
C          C       0.29756   0.91926   0.29017  -0.09740
C          C       0.08202   0.37420   0.28855  -0.09841
C          C       0.40975   0.33003   0.37282  -0.14474
C          C       0.67492   0.08023   0.39990  -0.14384
C          C       0.91204   0.59049   0.37807  -0.14219
C          C       0.59251   0.67554   0.40350  -0.14398
C          C       0.33124   0.92700   0.38504  -0.14564
C          C       0.07317   0.39934   0.37994  -0.14679
C          C       0.61069   0.43731   0.91409  -0.21203
C          C       0.56857   0.17489   0.90406  -0.21258
C          C       0.82895   0.39602   0.92113  -0.21337
C          C       0.39206   0.56617   0.90558  -0.21372
C          C       0.43440   0.82747   0.91422  -0.21255
C          C       0.17220   0.60400   0.90570  -0.21334
C          C       0.57306   0.41878   0.82810   0.22554
C          C       0.58641   0.15597   0.81931   0.22493
C          C       0.84712   0.43185   0.83000   0.22557
C          C       0.42809   0.58419   0.81922   0.22719
C          C       0.41629   0.84681   0.82932   0.22512
C          C       0.15324   0.56765   0.81305   0.22539
C          C       0.55850   0.37831   0.76653  -0.19082
C          C       0.62588   0.18228   0.75968  -0.19365
C          C       0.82054   0.44450   0.76251  -0.19337
C          C       0.44045   0.62340   0.75365  -0.19309
C          C       0.37598   0.82088   0.76634  -0.19107
C          C       0.17925   0.55545   0.74404  -0.19295
C          C       0.58186   0.35840   0.78491  -0.11784
C          C       0.64580   0.22581   0.78089  -0.11786
C          C       0.77765   0.42155   0.78333  -0.11774
C          C       0.41714   0.64316   0.77256  -0.11932
C          C       0.35541   0.77736   0.78434  -0.11689
C          C       0.22251   0.57959   0.76468  -0.11762
C          C       0.61992   0.37701   0.86765   0.03475
C          C       0.62811   0.24502   0.86447   0.03480
C          C       0.75921   0.38550   0.87248   0.03321
C          C       0.38101   0.62534   0.85786   0.03409
C          C       0.37345   0.75761   0.86679   0.03673
C          C       0.24177   0.61621   0.85549   0.03233
C          C       0.63341   0.41674   0.93403  -0.11652
C          C       0.58917   0.21838   0.92727  -0.11618
C          C       0.78604   0.37356   0.94263  -0.11610
C          C       0.36917   0.58639   0.92503  -0.11718
C          C       0.41331   0.78391   0.93305  -0.11707
C          C       0.21545   0.62758   0.92699  -0.11765
C          C       0.53008   0.44117   0.67174   0.15364
C          C       0.56333   0.09085   0.66114   0.15157
C          C       0.90997   0.47348   0.67370   0.14682
C          C       0.47056   0.56198   0.66921   0.15244
C          C       0.43857   0.91061   0.67185   0.15023
C          C       0.08743   0.52478   0.65603   0.15230
C          C       0.51418   0.47210   0.68640  -0.01805
C          C       0.53136   0.04405   0.67154  -0.01777
C          C       0.95624   0.48718   0.68049  -0.01586
C          C       0.48612   0.53078   0.68616  -0.01843
C          C       0.47106   0.95740   0.67919  -0.02019
C          C       0.04144   0.51114   0.66955  -0.02006
C          C       0.47152   0.45841   0.68778  -0.24522
C          C       0.54343   0.01364   0.67038  -0.24400
C          C       0.98720   0.52974   0.67962  -0.24397
C          C       0.52877   0.54444   0.69334  -0.24381
C          C       0.45909   0.98788   0.68412  -0.24344
C          C       0.01058   0.46864   0.67543  -0.24286
C          C       0.54289   0.51561   0.69548   0.17514
C          C       0.48866   0.03078   0.67986   0.17429
C          C       0.96839   0.45655   0.68175   0.17510
C          C       0.45740   0.48724   0.69032   0.17631
C          C       0.51380   0.97066   0.67467   0.17486
C          C       0.02945   0.54186   0.67529   0.17502
C          C       0.64505   0.35604   0.87915   0.08320
C          C       0.64909   0.29141   0.87901   0.08186
C          C       0.71328   0.36037   0.88334   0.08414
C          C       0.35608   0.64639   0.87072   0.08347
C          C       0.35210   0.71108   0.87596   0.08266
C          C       0.28786   0.64200   0.86980   0.08450
C          C       0.68894   0.37984   0.88212  -0.19696
C          C       0.62566   0.31185   0.87844  -0.19792
C          C       0.69287   0.31614   0.88381  -0.19658
C          C       0.31226   0.62261   0.86910  -0.19677
C          C       0.37550   0.69056   0.87544  -0.19734
C          C       0.30826   0.68628   0.87470  -0.19941
C          C       0.61398   0.57141   0.72654  -0.18072
C          C       0.43500   0.04897   0.69213  -0.18115
C          C       0.94777   0.38312   0.69171  -0.18154
C          C       0.38589   0.43166   0.70928  -0.18279
C          C       0.56680   0.95205   0.64873  -0.18291
C          C       0.04968   0.61506   0.68575  -0.18093
C          C       0.49739   0.40051   0.61175  -0.07280
C          C       0.60328   0.09797   0.60876  -0.07145
C          C       0.90321   0.50725   0.62039  -0.07276
C          C       0.50310   0.60238   0.61359  -0.07145
C          C       0.39851   0.90415   0.61417  -0.06972
C          C       0.09303   0.49073   0.59854  -0.07303
C          C       0.47241   0.37001   0.53658  -0.10990
C          C       0.63356   0.10340   0.54082  -0.10994
C          C       0.89674   0.53166   0.54860  -0.11067
C          C       0.52794   0.63248   0.54232  -0.11115
C          C       0.36860   0.90040   0.54119  -0.11343
C          C       0.09741   0.46515   0.52652  -0.11183
C          C       0.44419   0.33022   0.94715   0.14200
C          C       0.66570   0.10692   0.95436   0.14347
C          C       0.89404   0.56086   0.95668   0.14164
C          C       0.55365   0.66705   0.95762   0.14295
C          C       0.33019   0.88776   0.95293   0.14351
C          C       0.10831   0.43980   0.93873   0.14270
C          C       0.45351   0.29753   0.93282  -0.12676
C          C       0.69586   0.14876   0.91980  -0.12369
C          C       0.85270   0.55168   0.92554  -0.12275
C          C       0.54077   0.69630   0.92113  -0.12392
C          C       0.29748   0.84574   0.93013  -0.12835
C          C       0.15017   0.45160   0.91197  -0.12648
C          C       0.42808   0.26220   0.84314  -0.09675
C          C       0.72899   0.15678   0.82917  -0.09313
C          C       0.84511   0.57789   0.83371  -0.09509
C          C       0.56435   0.72968   0.82668  -0.09455
C          C       0.26327   0.83681   0.83628  -0.09723
C          C       0.15910   0.42679   0.81932  -0.09391
C          C       0.39317   0.25880   0.76553  -0.09975
C          C       0.73271   0.12346   0.77089  -0.09821
C          C       0.87832   0.61345   0.77058  -0.09598
C          C       0.60097   0.73453   0.76651  -0.09809
C          C       0.26098   0.86936   0.76323  -0.10075
C          C       0.12671   0.39022   0.75034  -0.09997
C          C       0.38379   0.29113   0.77846  -0.09613
C          C       0.70295   0.08188   0.80437  -0.10042
C          C       0.91938   0.62274   0.80030  -0.09848
C          C       0.61400   0.70573   0.80215  -0.09763
C          C       0.29335   0.91110   0.78471  -0.09579
C          C       0.08514   0.37857   0.77481  -0.09666
C          C       0.40895   0.32652   0.86851  -0.14502
C          C       0.66976   0.07355   0.89539  -0.14618
C          C       0.92734   0.59680   0.89259  -0.14611
C          C       0.59069   0.67231   0.89687  -0.14600
C          C       0.32764   0.92031   0.87855  -0.14319
C          C       0.07591   0.40297   0.86842  -0.14349
N          N       0.54976   0.43814   0.30831  -0.38306
N          N       0.56475   0.11181   0.30239  -0.38427
N          N       0.89241   0.45490   0.31790  -0.38767
N          N       0.45058   0.55985   0.30635  -0.38465
N          N       0.43634   0.88865   0.31586  -0.38080
N          N       0.11093   0.54505   0.30223  -0.38379
N          N       0.55054   0.44022   0.81508  -0.38644
N          N       0.56519   0.11176   0.80484  -0.38569
N          N       0.89082   0.45451   0.81718  -0.38418
N          N       0.45133   0.56364   0.80970  -0.38469
N          N       0.43778   0.89106   0.81723  -0.38597
N          N       0.10935   0.54416   0.80019  -0.38399
O          O       0.58509   0.52527   0.16323  -0.17267
O          O       0.47675   0.06055   0.19312  -0.17127
O          O       0.93813   0.41483   0.19949  -0.17181
O          O       0.41590   0.47376   0.18507  -0.17250
O          O       0.52186   0.93723   0.16349  -0.17250
O          O       0.06268   0.58343   0.17035  -0.17208
O          O       0.58489   0.52736   0.70325  -0.17205
O          O       0.47843   0.06236   0.68109  -0.17139
O          O       0.93625   0.41494   0.68838  -0.17055
O          O       0.41554   0.47564   0.69542  -0.17163
O          O       0.52391   0.93902   0.67313  -0.17317
O          O       0.06160   0.58360   0.67372  -0.17263

