data_crystal

_audit_creation_method 'AiiDA-DDEC plugin'

_cell_length_a        19.37332
_cell_length_b        19.22809
_cell_length_c        24.39920

_cell_angle_alpha     90.13123
_cell_angle_beta     90.11855
_cell_angle_gamma     119.92451

_symmetry_space_group_name_Hall 'P 1'
_symmetry_space_group_name_H-M  'P 1'

loop_
_symmetry_equiv_pos_as_xyz
 'x,y,z'

loop_
_atom_site_label
_atom_site_type_symbol
_atom_site_fract_x
_atom_site_fract_y
_atom_site_fract_z
_atom_site_charge
H          H      -0.00059   0.13212   0.57124   0.15296
H          H       0.87062   0.87293   0.57208   0.15306
H          H       0.12773   0.00198   0.57074   0.15277
H          H       0.00170   0.87229   0.43029   0.15318
H          H       0.13113   0.13142   0.42609   0.15342
H          H       0.87401   0.00300   0.42527   0.15396
H          H       0.35405   0.54883   0.07306   0.16786
H          H       0.44783   0.80541   0.07114   0.16858
H          H       0.19339   0.64339   0.07300   0.16748
H          H       0.64387   0.44747   0.93242   0.16816
H          H       0.54828   0.19064   0.92660   0.16696
H          H       0.80290   0.35085   0.92636   0.16808
H          H       0.61317   0.68821   0.41077   0.14362
H          H       0.30849   0.92416   0.41111   0.14315
H          H       0.08153   0.39091   0.41075   0.14356
H          H       0.38742   0.31240   0.59073   0.14112
H          H       0.69507   0.07920   0.58495   0.14286
H          H       0.92214   0.61208   0.59085   0.14118
H          H       0.65502   0.77421   0.54553   0.30706
H          H       0.22315   0.88118   0.54562   0.30506
H          H       0.12781   0.35158   0.54578   0.30524
H          H       0.34750   0.22435   0.45628   0.30504
H          H       0.78152   0.12433   0.45070   0.30479
H          H       0.87763   0.65491   0.45624   0.30303
H          H       0.60242   0.69955   0.31406   0.09234
H          H       0.29718   0.90206   0.31413   0.09237
H          H       0.10023   0.39780   0.31415   0.09211
H          H       0.39710   0.30169   0.68806   0.09317
H          H       0.70448   0.09964   0.68131   0.09508
H          H       0.90091   0.60162   0.68788   0.09282
H          H       0.73865   0.98447   0.43228   0.13384
H          H       0.01526   0.74872   0.43180   0.13467
H          H       0.25116   0.26534   0.43247   0.13361
H          H       0.26044   0.01568   0.57096   0.13295
H          H       0.98818   0.25723   0.56556   0.13441
H          H       0.75268   0.73799   0.57055   0.13251
H          H       0.70287   0.89972   0.29719   0.30563
H          H       0.09891   0.79495   0.29716   0.30425
H          H       0.20184   0.30013   0.29730   0.30455
H          H       0.29817   0.10246   0.70541   0.30350
H          H       0.90331   0.21143   0.69978   0.30553
H          H       0.79738   0.69760   0.70507   0.30549
H          H       0.73914   0.97407   0.52790   0.08915
H          H       0.02572   0.76481   0.52791   0.08899
H          H       0.23850   0.26397   0.52848   0.08807
H          H       0.25965   0.02520   0.47493   0.08833
H          H       0.97847   0.24082   0.46912   0.08893
H          H       0.76822   0.74328   0.47413   0.08693
H          H       0.00282   0.87037   0.23209   0.16319
H          H       0.13221   0.12956   0.22730   0.16468
H          H       0.87482   0.00105   0.22853   0.16388
H          H       0.00582   0.13497   0.76996   0.16226
H          H       0.86829   0.87577   0.76925   0.16263
H          H       0.12542   0.99613   0.76783   0.16213
H          H       0.64666   0.45172   0.73296   0.16875
H          H       0.54246   0.19381   0.72986   0.16894
H          H       0.79842   0.34650   0.72918   0.17158
H          H       0.35356   0.54904   0.27016   0.16941
H          H       0.45134   0.80615   0.27051   0.16892
H          H       0.19627   0.64802   0.26866   0.16878
H          H       0.37628   0.30090   0.06878   0.14008
H          H       0.70276   0.07339   0.06214   0.14148
H          H       0.92470   0.62013   0.06745   0.14042
H          H       0.62047   0.69641   0.93205   0.14003
H          H       0.29913   0.92591   0.93420   0.14075
H          H       0.07354   0.37548   0.93396   0.14182
H          H       0.34131   0.21959   0.20415   0.30617
H          H       0.78246   0.11955   0.19809   0.30747
H          H       0.88365   0.65943   0.20330   0.30745
H          H       0.66224   0.78175   0.79766   0.30711
H          H       0.21792   0.88550   0.79873   0.30706
H          H       0.11771   0.33848   0.79828   0.30652
H          H       0.39079   0.29023   0.97353   0.09088
H          H       0.71283   0.09786   0.96697   0.09103
H          H       0.89929   0.60599   0.97236   0.09118
H          H       0.60612   0.70558   0.02827   0.09194
H          H       0.28893   0.90072   0.02894   0.09109
H          H       0.09865   0.38957   0.02933   0.09107
H          H       0.27515   0.00857   0.09279   0.12734
H          H       0.99058   0.27104   0.08847   0.12633
H          H       0.73740   0.72422   0.09322   0.12843
H          H       0.72977   0.99064   0.91170   0.12693
H          H       0.00788   0.74113   0.90931   0.12903
H          H       0.25946   0.26948   0.90948   0.12840
H          H       0.31245   0.09018   0.95731   0.30963
H          H       0.90964   0.22846   0.95239   0.30993
H          H       0.77928   0.68576   0.95732   0.30882
H          H       0.68675   0.90485   0.04602   0.30697
H          H       0.09033   0.78174   0.04483   0.30817
H          H       0.21447   0.30558   0.04510   0.30792
H          H       0.26634   0.02039   0.18882   0.08322
H          H       0.98030   0.24575   0.18394   0.08379
H          H       0.75905   0.73334   0.18935   0.08334
H          H       0.73934   0.98125   0.81530   0.08398
H          H       0.01973   0.76048   0.81283   0.08391
H          H       0.24140   0.26339   0.81344   0.08348
H          H       0.18997   0.36579   0.67250   0.14739
H          H       0.64141   0.82539   0.67263   0.14628
H          H       0.17548   0.81840   0.67213   0.14652
H          H       0.81390   0.63644   0.33072   0.14615
H          H       0.36531   0.17329   0.33080   0.14646
H          H       0.82853   0.19028   0.32536   0.14622
H          H       0.13262   0.08415   0.66875   0.15008
H          H       0.91635   0.05660   0.67010   0.15143
H          H       0.94561   0.86440   0.66920   0.15158
H          H       0.87184   0.91825   0.32952   0.14912
H          H       0.08475   0.95213   0.32986   0.14934
H          H       0.05171   0.13386   0.32666   0.14905
H          H       0.14082   0.28672   0.17227   0.14528
H          H       0.71033   0.85053   0.17162   0.14609
H          H       0.14545   0.85772   0.17218   0.14526
H          H       0.85657   0.70868   0.82991   0.14633
H          H       0.28778   0.14755   0.82974   0.14609
H          H       0.85751   0.15017   0.82362   0.14557
H          H       0.22144   0.57496   0.17094   0.13816
H          H       0.42304   0.64795   0.17139   0.13787
H          H       0.35273   0.77853   0.17043   0.13871
H          H       0.77540   0.42012   0.82989   0.13907
H          H       0.57429   0.35326   0.83212   0.13991
H          H       0.63729   0.21067   0.82730   0.14144
C          C       0.73686   0.90856   0.62109   0.10966
C          C       0.09235   0.83121   0.62052   0.10961
C          C       0.17409   0.26814   0.62069   0.11003
C          C       0.26644   0.09251   0.38107   0.11027
C          C       0.91066   0.17490   0.37625   0.10934
C          C       0.83015   0.73580   0.38090   0.10863
C          C       0.81581   0.97432   0.62156   0.17908
C          C       0.02718   0.84527   0.62083   0.17977
C          C       0.15627   0.18715   0.62076   0.18024
C          C       0.18626   0.02939   0.37944   0.17917
C          C       0.97420   0.15840   0.37564   0.18000
C          C       0.84691   0.81636   0.37920   0.17929
C          C       0.92842   0.00304   0.57075   0.29704
C          C      -0.00143   0.93029   0.57042   0.29659
C          C       0.07053   0.07354   0.57009   0.29671
C          C       0.07289   0.00129   0.42901   0.29655
C          C       0.00308   0.07421   0.42710   0.29593
C          C       0.93084   0.93111   0.42905   0.29556
C          C      -0.00050   0.07569   0.57019  -0.31555
C          C       0.92645   0.92941   0.57065  -0.31811
C          C       0.07161   0.00185   0.56991  -0.31575
C          C       0.00175   0.92879   0.43009  -0.31585
C          C       0.07517   0.07506   0.42780  -0.31632
C          C       0.92991   0.00281   0.42756  -0.31729
C          C       0.60875   0.77587   0.12093   0.10209
C          C       0.22051   0.83238   0.12087   0.10461
C          C       0.16657   0.38780   0.12102   0.10394
C          C       0.38870   0.22135   0.88134   0.10355
C          C       0.77874   0.16914   0.87569   0.10570
C          C       0.83068   0.60713   0.88062   0.10473
C          C       0.52652   0.71788   0.12185   0.18411
C          C       0.27976   0.80959   0.12148   0.18025
C          C       0.18959   0.47033   0.12173   0.17968
C          C       0.47064   0.28031   0.88086   0.18106
C          C       0.71571   0.18651   0.87547   0.17817
C          C       0.80760   0.52456   0.87958   0.18146
C          C       0.40838   0.67823   0.07165   0.29697
C          C       0.31943   0.73078   0.07134   0.29702
C          C       0.26740   0.58872   0.07178   0.29521
C          C       0.58836   0.31794   0.93043   0.29735
C          C       0.67632   0.26415   0.92726   0.29705
C          C       0.72943   0.40625   0.92977   0.29765
C          C       0.34451   0.59991   0.07178  -0.31673
C          C       0.39722   0.74473   0.07089  -0.31705
C          C       0.25364   0.65315   0.07167  -0.31677
C          C       0.65271   0.39592   0.93158  -0.31757
C          C       0.59895   0.25117   0.92844  -0.31837
C          C       0.74277   0.34148   0.92807  -0.31837
C          C       0.64219   0.75309   0.41543  -0.23802
C          C       0.24429   0.88685   0.41565  -0.23798
C          C       0.11735   0.36214   0.41564  -0.24009
C          C       0.35869   0.24750   0.58635  -0.23785
C          C       0.75924   0.11715   0.58069  -0.23994
C          C       0.88620   0.64079   0.58632  -0.23769
C          C       0.65728   0.78603   0.46796   0.26669
C          C       0.21174   0.86969   0.46804   0.26746
C          C       0.13605   0.34832   0.46813   0.26761
C          C       0.34418   0.21397   0.53399   0.26679
C          C       0.79220   0.13485   0.52841   0.26948
C          C       0.86879   0.65646   0.53391   0.26809
C          C       0.63671   0.76517   0.31537   0.09505
C          C       0.23207   0.86881   0.31555   0.09404
C          C       0.13214   0.36428   0.31562   0.09434
C          C       0.36309   0.23610   0.68670   0.09416
C          C       0.76958   0.13496   0.68067   0.09295
C          C       0.86826   0.63442   0.68642   0.09440
C          C       0.66222   0.80225   0.36858  -0.05061
C          C       0.19552   0.85587   0.36871  -0.05095
C          C       0.14558   0.34102   0.36887  -0.05078
C          C       0.33835   0.19883   0.63350  -0.04946
C          C       0.80736   0.14878   0.62785  -0.05031
C          C       0.85637   0.65967   0.63334  -0.04898
C          C       0.69217   0.87082   0.47397  -0.04342
C          C       0.12775   0.81905   0.47386  -0.04368
C          C       0.18513   0.31288   0.47401  -0.04301
C          C       0.30840   0.12897   0.52853  -0.04118
C          C       0.87615   0.18630   0.52305  -0.04334
C          C       0.81978   0.69207   0.52829  -0.04316
C          C       0.71292   0.91996   0.42720  -0.22701
C          C       0.07910   0.78811   0.42702  -0.22769
C          C       0.21310   0.29153   0.42732  -0.22721
C          C       0.28714   0.08035   0.57555  -0.22859
C          C       0.92435   0.21737   0.57011  -0.22729
C          C       0.79081   0.71179   0.57524  -0.22749
C          C       0.70069   0.88744   0.37461   0.27372
C          C       0.11125   0.80679   0.37452   0.27519
C          C       0.19296   0.30360   0.37477   0.27399
C          C       0.30013   0.11357   0.62794   0.27361
C          C       0.89162   0.19861   0.62246   0.27256
C          C       0.80930   0.69753   0.62771   0.27271
C          C       0.71205   0.90880   0.52723   0.10030
C          C       0.09045   0.80298   0.52699   0.10176
C          C       0.20207   0.29266   0.52729   0.10107
C          C       0.28842   0.09055   0.47545   0.09900
C          C       0.91369   0.20314   0.47002   0.10074
C          C       0.80361   0.71348   0.47510   0.10128
C          C       0.26720   0.09106   0.28016   0.10802
C          C       0.91127   0.17491   0.27528   0.10862
C          C       0.82996   0.73467   0.27997   0.10922
C          C       0.73822   0.91223   0.72228   0.10802
C          C       0.08946   0.82938   0.72149   0.10910
C          C       0.17432   0.26608   0.72150   0.10732
C          C       0.18673   0.02838   0.28064   0.17776
C          C       0.97447   0.15787   0.27680   0.17750
C          C       0.84732   0.81550   0.28043   0.17708
C          C       0.81724   0.97772   0.72052   0.17746
C          C       0.02430   0.84336   0.71956   0.17630
C          C       0.15769   0.18555   0.71942   0.17835
C          C       0.07406  -0.00032   0.22852   0.29692
C          C       0.00361   0.07235   0.22660   0.29594
C          C       0.93165   0.92871   0.22875   0.29714
C          C       0.93037   0.00600   0.77119   0.29629
C          C       0.99625   0.92875   0.77047   0.29696
C          C       0.07271   0.07211   0.77038   0.29732
C          C       0.00293   0.92685   0.22927  -0.31973
C          C       0.07593   0.07335   0.22664  -0.31993
C          C       0.93062   0.00052   0.22723  -0.31982
C          C       0.00312   0.07717   0.77127  -0.32240
C          C       0.92552   0.93086   0.77111  -0.32173
C          C       0.07080  -0.00116   0.77028  -0.32105
C          C       0.38820   0.22679   0.78031   0.10503
C          C       0.77455   0.16645   0.77447   0.10535
C          C       0.83383   0.60743   0.77953   0.10414
C          C       0.61008   0.77361   0.22209   0.10481
C          C       0.22409   0.83549   0.22199   0.10482
C          C       0.16428   0.38850   0.22218   0.10462
C          C       0.47057   0.28437   0.78196   0.18237
C          C       0.71215   0.18475   0.77642   0.17870
C          C       0.80925   0.52453   0.78046   0.18047
C          C       0.52740   0.71684   0.22092   0.18205
C          C       0.28276   0.81199   0.22045   0.17997
C          C       0.18869   0.47138   0.22074   0.18198
C          C       0.58737   0.32200   0.73109   0.29613
C          C       0.67130   0.26349   0.72828   0.29578
C          C       0.72906   0.40647   0.73012   0.29760
C          C       0.40975   0.67842   0.27079   0.29605
C          C       0.32293   0.73347   0.27029   0.29583
C          C       0.26825   0.59098   0.27022   0.29678
C          C       0.65341   0.39895   0.73104  -0.31837
C          C       0.59489   0.25329   0.72930  -0.31907
C          C       0.73931   0.33979   0.72869  -0.32282
C          C       0.34484   0.60065   0.27075  -0.31732
C          C       0.40012   0.74585   0.27104  -0.31677
C          C       0.25606   0.65647   0.27003  -0.31770
C          C       0.35494   0.23726   0.07420  -0.22073
C          C       0.76533   0.11748   0.06810  -0.21814
C          C       0.88350   0.64241   0.07332  -0.22003
C          C       0.64371   0.76055   0.92740  -0.22099
C          C       0.23562   0.88540   0.92853  -0.21989
C          C       0.11449   0.35285   0.92830  -0.22055
C          C       0.34172   0.20601   0.12700   0.27055
C          C       0.79611   0.13561   0.12113   0.27046
C          C       0.86723   0.65705   0.12628   0.27031
C          C       0.65933   0.79340   0.87496   0.27096
C          C       0.20407   0.86958   0.87572   0.27012
C          C       0.13192   0.33900   0.87547   0.26984
C          C       0.36247   0.22476   0.97470   0.11100
C          C       0.77729   0.13847   0.96873   0.10965
C          C       0.86233   0.63428   0.97394   0.11070
C          C       0.63493   0.77110   0.02727   0.11022
C          C       0.22395   0.86385   0.02770   0.11039
C          C       0.13460   0.36025   0.02781   0.11017
C          C       0.34122   0.18797   0.02801  -0.04592
C          C       0.81379   0.15485   0.02227  -0.04632
C          C       0.84788   0.65622   0.02743  -0.04642
C          C       0.65749   0.80881   0.97424  -0.04561
C          C       0.18689   0.84986   0.97449  -0.04596
C          C       0.14861   0.33762   0.97446  -0.04735
C          C       0.31303   0.12213   0.13362  -0.04878
C          C       0.87898   0.19163   0.12845  -0.04840
C          C       0.81293   0.68630   0.13344  -0.04852
C          C       0.69066   0.87790   0.86924  -0.04880
C          C       0.12058   0.81577   0.86870  -0.04811
C          C       0.18586   0.30922   0.86878  -0.04835
C          C       0.29850   0.07261   0.08738  -0.23348
C          C       0.92746   0.22894   0.08253  -0.23407
C          C       0.77748   0.70045   0.08750  -0.23386
C          C       0.70476   0.92620   0.91618  -0.23441
C          C       0.07164   0.78077   0.91481  -0.23494
C          C       0.21940   0.29326   0.91499  -0.23409
C          C       0.31219   0.10414   0.03465   0.27277
C          C       0.89629   0.21203   0.02957   0.27177
C          C       0.79441   0.68640   0.03456   0.27352
C          C       0.68860   0.89322   0.96855   0.27246
C          C       0.10331   0.79698   0.96765   0.27311
C          C       0.20127   0.30640   0.96779   0.27289
C          C       0.29300   0.08570   0.18702   0.09960
C          C       0.91550   0.20666   0.18202   0.09946
C          C       0.79781   0.70711   0.18707   0.09937
C          C       0.71265   0.91584   0.81622   0.09938
C          C       0.08444   0.79971   0.81504   0.09900
C          C       0.20282   0.28983   0.81526   0.09844
C          C       0.18108   0.30530   0.67161  -0.21498
C          C       0.70041   0.87837   0.67201  -0.21216
C          C       0.12293   0.82505   0.67140  -0.21311
C          C       0.82326   0.69711   0.33058  -0.21282
C          C       0.30488   0.12254   0.33074  -0.21382
C          C       0.87980   0.18150   0.32562  -0.21380
C          C       0.14786   0.14672   0.66957  -0.30824
C          C       0.85506   0.00757   0.67068  -0.30641
C          C       0.99436   0.85170   0.66981  -0.30616
C          C       0.85640   0.85560   0.32964  -0.30846
C          C       0.14706  -0.00123   0.32988  -0.30845
C          C       0.00463   0.14904   0.32640  -0.30810
C          C       0.15552   0.34925   0.17175  -0.22093
C          C       0.64812   0.80329   0.17150  -0.22178
C          C       0.19334   0.84364   0.17166  -0.22085
C          C       0.84213   0.64621   0.83010  -0.22223
C          C       0.34978   0.19521   0.83054  -0.22123
C          C       0.80714   0.16043   0.82467  -0.21956
C          C       0.20161   0.51122   0.17107  -0.32642
C          C       0.48664   0.69029   0.17136  -0.32901
C          C       0.30921   0.79850   0.17073  -0.32554
C          C       0.79583   0.48403   0.83002  -0.32594
C          C       0.51087   0.31008   0.83169  -0.32673
C          C       0.68396   0.19498   0.82647  -0.32127
N          N       0.65093   0.80826   0.27099  -0.27860
N          N       0.18907   0.83946   0.27111  -0.27757
N          N       0.15987   0.34890   0.27117  -0.27771
N          N       0.34824   0.19287   0.73110  -0.27759
N          N       0.81133   0.16532   0.72544  -0.27855
N          N       0.83875   0.64775   0.73076  -0.27658
N          N       0.70033   0.86771   0.57235  -0.28708
N          N       0.13193   0.83385   0.57185  -0.28407
N          N       0.17328   0.30613   0.57202  -0.28283
N          N       0.30259   0.13193   0.43021  -0.28401
N          N       0.87201   0.17311   0.42511  -0.28253
N          N       0.83168   0.69939   0.43023  -0.28131
N          N       0.35084   0.18258   0.93001  -0.28802
N          N       0.81846   0.17159   0.92440  -0.28977
N          N       0.83122   0.64560   0.92961  -0.28793
N          N       0.64683   0.81321   0.07204  -0.28444
N          N       0.18231   0.83287   0.07218  -0.28779
N          N       0.16519   0.34851   0.07228  -0.28882
N          N       0.30434   0.12871   0.23125  -0.28189
N          N       0.87344   0.17375   0.22603  -0.28109
N          N       0.83044   0.69693   0.23103  -0.28222
N          N       0.70244   0.87409   0.77150  -0.28091
N          N       0.12700   0.83168   0.77103  -0.28308
N          N       0.17200   0.30163   0.77099  -0.28206
O          O       0.85666   0.00381   0.57238  -0.22322
O          O       0.99766   0.85710   0.57171  -0.22481
O          O       0.14293   0.14588   0.57134  -0.22246
O          O       0.14427  -0.00017   0.42810  -0.22102
O          O       0.00393   0.14726   0.42487  -0.22104
O          O       0.85845   0.85880   0.42790  -0.22119
O          O       0.48592   0.69077   0.07222  -0.21562
O          O       0.30666   0.79614   0.07187  -0.21463
O          O       0.20199   0.51089   0.07226  -0.21200
O          O       0.51115   0.30622   0.93061  -0.21439
O          O       0.68722   0.19764   0.92519  -0.21571
O          O       0.79463   0.48419   0.92924  -0.21649
O          O       0.63886   0.73740   0.51229  -0.43109
O          O       0.25985   0.90152   0.51249  -0.43244
O          O       0.10733   0.36810   0.51253  -0.43296
O          O       0.36382   0.26198   0.48924  -0.43251
O          O       0.74457   0.10297   0.48377  -0.43373
O          O       0.89870   0.63844   0.48928  -0.43323
O          O       0.72435   0.93665   0.33052  -0.42828
O          O       0.06234   0.77765   0.33044  -0.42804
O          O       0.21914   0.28067   0.33065  -0.42744
O          O       0.27737   0.06494   0.67222  -0.42780
O          O       0.94011   0.22862   0.66678  -0.42582
O          O       0.78169   0.71889   0.67192  -0.42863
O          O       0.14589  -0.00106   0.23107  -0.22396
O          O       0.00416   0.14547   0.22783  -0.22442
O          O       0.85908   0.85656   0.23100  -0.22291
O          O       0.86017   0.01012   0.76913  -0.22571
O          O       0.99241   0.85411   0.76809  -0.22455
O          O       0.14662   0.14276   0.76791  -0.22445
O          O       0.51138   0.31347   0.73285  -0.21518
O          O       0.68042   0.19563   0.72785  -0.21779
O          O       0.79633   0.48316   0.73096  -0.21567
O          O       0.48663   0.68906   0.27023  -0.21477
O          O       0.31243   0.80028   0.26954  -0.21422
O          O       0.20161   0.51381   0.26968  -0.21658
O          O       0.35548   0.25516   0.17047  -0.42889
O          O       0.74739   0.09911   0.16419  -0.42858
O          O       0.90324   0.64379   0.16941  -0.42992
O          O       0.64538   0.74521   0.83085  -0.43037
O          O       0.25300   0.90570   0.83267  -0.42954
O          O       0.09730   0.35350   0.83202  -0.42943
O          O       0.29848   0.05507   0.99107  -0.43534
O          O       0.94432   0.25008   0.98634  -0.43504
O          O       0.75962   0.70102   0.99126  -0.43517
O          O       0.70194   0.94128   0.01272  -0.43562
O          O       0.05478   0.76203   0.01114  -0.43380
O          O       0.23460   0.29042   0.01133  -0.43326

