data_crystal

_audit_creation_method 'AiiDA-DDEC plugin'

_cell_length_a        24.82520
_cell_length_b        24.86361
_cell_length_c        23.02071

_cell_angle_alpha     89.97679
_cell_angle_beta     90.19084
_cell_angle_gamma     120.01383

_symmetry_space_group_name_Hall 'P 1'
_symmetry_space_group_name_H-M  'P 1'

loop_
_symmetry_equiv_pos_as_xyz
 'x,y,z'

loop_
_atom_site_label
_atom_site_type_symbol
_atom_site_fract_x
_atom_site_fract_y
_atom_site_fract_z
_atom_site_charge
H          H       0.95531   0.07138   0.57676   0.15902
H          H       0.93125   0.88695   0.57773   0.16108
H          H       0.11604   0.04759   0.57361   0.16076
H          H       0.05122   0.93533   0.42818   0.16093
H          H       0.06341   0.11470   0.42141   0.16378
H          H       0.88350   0.94732   0.42301   0.15938
H          H       0.38956   0.60863   0.07517   0.17134
H          H       0.38897   0.78218   0.07698   0.17231
H          H       0.21527   0.60801   0.07502   0.17157
H          H       0.60627   0.38733   0.92670   0.17169
H          H       0.60931   0.21516   0.92285   0.17146
H          H       0.78189   0.39063   0.92383   0.17241
H          H       0.56507   0.74031   0.44305   0.14122
H          H       0.26131   0.82787   0.44305   0.14183
H          H       0.17360   0.43604   0.44317   0.14121
H          H       0.43035   0.26514   0.56049   0.14158
H          H       0.74987   0.19263   0.54823   0.14122
H          H       0.83292   0.56488   0.55953   0.14093
H          H       0.66888   0.80293   0.56389   0.30149
H          H       0.19727   0.86628   0.56402   0.30180
H          H       0.13426   0.33230   0.56335   0.30124
H          H       0.33017   0.19668   0.43837   0.30158
H          H       0.81182   0.14885   0.42944   0.30047
H          H       0.87193   0.66790   0.43861   0.30241
H          H       0.53910   0.74140   0.34393   0.08868
H          H       0.26065   0.80143   0.34382   0.09064
H          H       0.20085   0.46297   0.34402   0.09051
H          H       0.45657   0.26575   0.66019   0.09125
H          H       0.74657   0.21423   0.64870   0.08861
H          H       0.80261   0.53741   0.65831   0.09011
H          H       0.77546   0.92410   0.41297   0.12840
H          H       0.06893   0.84044   0.41471   0.12931
H          H       0.15955   0.23104   0.41339   0.12999
H          H       0.22848   0.06977   0.58810   0.12942
H          H       0.91973   0.14567   0.58520   0.12581
H          H       0.84363   0.76859   0.58683   0.12915
H          H       0.67259   0.86070   0.29193   0.30175
H          H       0.13428   0.80355   0.29361   0.29995
H          H       0.19724   0.33447   0.29314   0.29991
H          H       0.32842   0.13995   0.71022   0.30000
H          H       0.85601   0.18674   0.70432   0.29932
H          H       0.80645   0.66697   0.70795   0.30081
H          H       0.79874   0.92686   0.51399   0.08184
H          H       0.06829   0.86425   0.51468   0.08271
H          H       0.13622   0.20599   0.51366   0.08327
H          H       0.20486   0.06635   0.48682   0.08330
H          H       0.92429   0.12570   0.48481   0.07948
H          H       0.86478   0.79192   0.48622   0.08292
H          H       0.04921   0.93247   0.22294   0.17442
H          H       0.06611   0.11393   0.21560   0.17469
H          H       0.88400   0.94897   0.21589   0.17449
H          H       0.95508   0.07115   0.78336   0.17414
H          H       0.92999   0.88600   0.78333   0.17442
H          H       0.11517   0.04587   0.77935   0.17468
H          H       0.61013   0.39495   0.72105   0.17170
H          H       0.59957   0.21613   0.71649   0.17246
H          H       0.77868   0.38461   0.71673   0.17127
H          H       0.38902   0.60770   0.28171   0.17195
H          H       0.39511   0.78451   0.28295   0.17166
H          H       0.21807   0.61368   0.28149   0.17473
H          H       0.44000   0.25094   0.09107   0.14026
H          H       0.74481   0.18123   0.08067   0.13973
H          H       0.80069   0.55420   0.09089   0.13948
H          H       0.56307   0.73842   0.91317   0.13923
H          H       0.25147   0.81292   0.91345   0.13982
H          H       0.18252   0.43862   0.91296   0.14012
H          H       0.33590   0.18709   0.21050   0.30030
H          H       0.80710   0.14090   0.20219   0.30197
H          H       0.84943   0.65994   0.21027   0.30084
H          H       0.66757   0.80246   0.79343   0.30174
H          H       0.19273   0.85845   0.79288   0.30119
H          H       0.14272   0.33559   0.79233   0.30104
H          H       0.46420   0.25418   0.99053   0.08813
H          H       0.74489   0.20601   0.98186   0.08801
H          H       0.78280   0.53127   0.99034   0.08712
H          H       0.53605   0.73946   0.01234   0.08862
H          H       0.25150   0.78885   0.01294   0.08738
H          H       0.20533   0.46307   0.01270   0.08801
H          H       0.22648   0.07309   0.05650   0.13819
H          H       0.93309   0.16157   0.05326   0.13867
H          H       0.86256   0.77525   0.05483   0.13818
H          H       0.76995   0.92723   0.94415   0.13904
H          H       0.08212   0.86147   0.94571   0.13831
H          H       0.14402   0.22430   0.94575   0.13817
H          H       0.33008   0.13870   0.93668   0.29821
H          H       0.86882   0.19961   0.93135   0.30136
H          H       0.81600   0.66947   0.93511   0.29884
H          H       0.66610   0.86269   0.06398   0.29947
H          H       0.13981   0.81399   0.06608   0.30020
H          H       0.18629   0.32871   0.06617   0.29988
H          H       0.20208   0.06995   0.15674   0.09030
H          H       0.93255   0.13596   0.15258   0.09069
H          H       0.88320   0.79883   0.15467   0.08523
H          H       0.79565   0.92822   0.84499   0.08765
H          H       0.07828   0.87971   0.84552   0.08554
H          H       0.12568   0.20153   0.84509   0.08960
H          H       0.14150   0.30547   0.67876   0.15117
H          H       0.69652   0.83406   0.67897   0.15077
H          H       0.16555   0.86251   0.67883   0.14736
H          H       0.86218   0.69384   0.32272   0.14697
H          H       0.30570   0.15742   0.32346   0.15111
H          H       0.84288   0.14843   0.31686   0.15079
H          H       0.05788   0.07918   0.67779   0.12762
H          H       0.92200   0.98240   0.68075   0.12886
H          H       0.01987   0.94287   0.67836   0.12831
H          H       0.94735   0.92026   0.32285   0.12642
H          H       0.07721   0.02639   0.32228   0.12538
H          H       0.97055   0.04775   0.31802   0.12497
H          H       0.18823   0.36098   0.17959   0.14912
H          H       0.63997   0.82619   0.17736   0.14469
H          H       0.16803   0.80962   0.17962   0.14890
H          H       0.81249   0.63807   0.82318   0.14812
H          H       0.35735   0.17437   0.82471   0.14908
H          H       0.83023   0.19103   0.81557   0.14865
H          H       0.28951   0.58916   0.17772   0.12347
H          H       0.41122   0.70286   0.17970   0.12310
H          H       0.29715   0.71055   0.17942   0.12308
H          H       0.70806   0.40964   0.82184   0.12366
H          H       0.58641   0.29423   0.82218   0.12346
H          H       0.69842   0.28716   0.81898   0.12386
C          C       0.77622   0.88747   0.62551   0.09931
C          C       0.11258   0.88905   0.62469   0.10060
C          C       0.11382   0.22603   0.62428   0.10007
C          C       0.22499   0.11003   0.37695   0.09769
C          C       0.88913   0.11444   0.37130   0.10043
C          C       0.89118   0.77366   0.37686   0.09894
C          C       0.84112   0.92990   0.62750   0.19759
C          C       0.07145   0.91308   0.62572   0.19778
C          C       0.08934   0.16088   0.62535   0.19849
C          C       0.15931   0.07269   0.37544   0.19977
C          C       0.92538   0.08491   0.37022   0.20117
C          C       0.91597   0.83887   0.37564   0.19880
C          C       0.93700   0.97682   0.57649   0.29137
C          C       0.02587   0.96329   0.57499   0.29227
C          C       0.03941   0.06542   0.57448   0.29235
C          C       0.06328   0.02760   0.42553   0.29404
C          C       0.97065   0.03450   0.42257   0.29325
C          C       0.96382   0.93501   0.42592   0.29222
C          C       0.97510   0.04108   0.57577  -0.31121
C          C       0.96151   0.93705   0.57647  -0.31272
C          C       0.06580   0.02748   0.57406  -0.30991
C          C       0.02848   0.96303   0.42696  -0.30958
C          C       0.03543   0.06433   0.42301  -0.31142
C          C       0.93396   0.96986   0.42389  -0.31014
C          C       0.55847   0.78118   0.12424   0.09943
C          C       0.21453   0.77592   0.12531   0.10054
C          C       0.22156   0.44063   0.12480   0.09964
C          C       0.43912   0.21719   0.87780   0.10014
C          C       0.78451   0.22470   0.87078   0.09885
C          C       0.77584   0.55727   0.87670   0.09907
C          C       0.49260   0.74598   0.12626   0.19895
C          C       0.25077   0.74627   0.12670   0.19896
C          C       0.25169   0.50646   0.12553   0.19764
C          C       0.50498   0.25145   0.87584   0.19756
C          C       0.74716   0.25308   0.87041   0.19995
C          C       0.74530   0.49147   0.87511   0.19964
C          C       0.39563   0.69849   0.07553   0.29418
C          C       0.29905   0.69824   0.07549   0.29255
C          C       0.29929   0.60209   0.07427   0.29230
C          C       0.60168   0.29812   0.92601   0.29300
C          C       0.69890   0.29989   0.92347   0.29278
C          C       0.69713   0.39523   0.92569   0.29274
C          C       0.36417   0.63371   0.07470  -0.31074
C          C       0.36397   0.73171   0.07589  -0.31115
C          C       0.26580   0.63345   0.07468  -0.31070
C          C       0.63230   0.36288   0.92647  -0.31207
C          C       0.63399   0.26563   0.92417  -0.31102
C          C       0.73136   0.36467   0.92445  -0.31124
C          C       0.61131   0.78012   0.43632  -0.24052
C          C       0.21961   0.83119   0.43675  -0.24062
C          C       0.17012   0.39107   0.43656  -0.24097
C          C       0.38587   0.22290   0.56667  -0.24061
C          C       0.78669   0.18193   0.55643  -0.24155
C          C       0.83587   0.60967   0.56570  -0.24052
C          C       0.65163   0.80389   0.48370   0.27547
C          C       0.19508   0.84646   0.48416   0.27505
C          C       0.15422   0.35069   0.48363   0.27483
C          C       0.34695   0.19662   0.51875   0.27506
C          C       0.81040   0.16473   0.50972   0.27463
C          C       0.85140   0.64956   0.51824   0.27511
C          C       0.58487   0.78054   0.33336   0.08045
C          C       0.21871   0.80372   0.33417   0.08074
C          C       0.19788   0.41858   0.33410   0.08152
C          C       0.41233   0.22391   0.66967   0.08137
C          C       0.78287   0.20351   0.66017   0.07762
C          C       0.80621   0.58214   0.66803   0.08117
C          C       0.62907   0.80660   0.38057  -0.04773
C          C       0.19144   0.81989   0.38145  -0.04882
C          C       0.18173   0.37487   0.38125  -0.04864
C          C       0.36908   0.19568   0.62216  -0.04911
C          C       0.80927   0.18553   0.61343  -0.04797
C          C       0.82352   0.62596   0.62072  -0.04849
C          C       0.71205   0.85685   0.47536  -0.04879
C          C       0.13989   0.85027   0.47604  -0.04926
C          C       0.15037   0.29180   0.47528  -0.04974
C          C       0.28903   0.14019   0.52658  -0.04940
C          C       0.85925   0.15115   0.52008  -0.04784
C          C       0.85407   0.70798   0.52582  -0.05016
C          C       0.72993   0.88320   0.41952  -0.24545
C          C       0.11164   0.83880   0.42070  -0.24593
C          C       0.16185   0.27553   0.41985  -0.24460
C          C       0.27211   0.11308   0.58218  -0.24625
C          C       0.88204   0.15513   0.57703  -0.24442
C          C       0.84222   0.72447   0.58093  -0.24379
C          C       0.68992   0.85897   0.37204   0.27258
C          C       0.13652   0.82425   0.37315   0.27417
C          C       0.17709   0.31564   0.37269   0.27331
C          C       0.31054   0.14000   0.63024   0.27470
C          C       0.85786   0.17156   0.62383   0.27404
C          C       0.82753   0.68501   0.62852   0.27263
C          C       0.75451   0.88523   0.52350   0.07659
C          C       0.11168   0.86457   0.52381   0.07837
C          C       0.13653   0.24923   0.52301   0.07898
C          C       0.24764   0.11008   0.47825   0.08056
C          C       0.88643   0.13415   0.47334   0.07834
C          C       0.86707   0.74986   0.47769   0.08066
C          C       0.22539   0.10854   0.26907   0.10204
C          C       0.88991   0.11489   0.26316   0.10050
C          C       0.88951   0.77327   0.26867   0.10241
C          C       0.77551   0.88782   0.73366   0.10255
C          C       0.11296   0.88944   0.73278   0.10189
C          C       0.11364   0.22567   0.73246   0.10190
C          C       0.15954   0.07153   0.27005   0.20350
C          C       0.92644   0.08559   0.26467   0.20368
C          C       0.91510   0.83868   0.27013   0.20470
C          C       0.84062   0.92986   0.73291   0.20137
C          C       0.07150   0.91314   0.73100   0.20319
C          C       0.08882   0.16038   0.73078   0.20228
C          C       0.06358   0.02568   0.21821   0.29317
C          C       0.97228   0.03503   0.21483   0.29226
C          C       0.96297   0.93451   0.21857   0.29096
C          C       0.93633   0.97620   0.78419   0.29311
C          C       0.02492   0.96230   0.78227   0.29309
C          C       0.03890   0.06465   0.78225   0.29160
C          C       0.02760   0.96113   0.21996  -0.31108
C          C       0.03700   0.06363   0.21587  -0.31079
C          C       0.93437   0.97050   0.21599  -0.30890
C          C       0.97456   0.04053   0.78371  -0.31072
C          C       0.96052   0.93610   0.78371  -0.31303
C          C       0.06509   0.02650   0.78139  -0.31341
C          C       0.43719   0.22052   0.77003   0.09828
C          C       0.78056   0.22256   0.76265   0.09879
C          C       0.77845   0.55788   0.76858   0.09768
C          C       0.56032   0.78106   0.23243   0.09789
C          C       0.21611   0.77717   0.23348   0.09820
C          C       0.22241   0.44196   0.23290   0.09829
C          C       0.50316   0.25517   0.77045   0.19810
C          C       0.74258   0.25026   0.76501   0.19923
C          C       0.74771   0.49200   0.76957   0.19910
C          C       0.49428   0.74580   0.23184   0.19864
C          C       0.25338   0.74868   0.23232   0.19752
C          C       0.25170   0.50768   0.23107   0.19971
C          C       0.59851   0.30266   0.71809   0.29362
C          C       0.69198   0.29700   0.71579   0.29137
C          C       0.69780   0.39604   0.71792   0.29354
C          C       0.39834   0.69910   0.28316   0.29193
C          C       0.30350   0.70234   0.28318   0.29272
C          C       0.30026   0.60436   0.28207   0.29307
C          C       0.63297   0.36743   0.71904  -0.31098
C          C       0.62714   0.26654   0.71643  -0.30990
C          C       0.72820   0.36170   0.71660  -0.31053
C          C       0.36515   0.63429   0.28257  -0.30983
C          C       0.36844   0.73405   0.28341  -0.30925
C          C       0.26858   0.63753   0.28229  -0.31362
C          C       0.39335   0.21212   0.08344  -0.24530
C          C       0.78577   0.17661   0.07467  -0.24299
C          C       0.81466   0.60260   0.08290  -0.24399
C          C       0.60834   0.77961   0.92000  -0.24399
C          C       0.21461   0.82371   0.92066  -0.24360
C          C       0.17401   0.39178   0.92025  -0.24410
C          C       0.35307   0.18754   0.13036   0.27514
C          C       0.80966   0.16062   0.12222   0.27471
C          C       0.83358   0.64348   0.12975   0.27381
C          C       0.64889   0.80382   0.87311   0.27614
C          C       0.19243   0.84196   0.87340   0.27449
C          C       0.15801   0.35172   0.87295   0.27483
C          C       0.41816   0.21537   0.97990   0.08199
C          C       0.78591   0.20235   0.97183   0.08178
C          C       0.79435   0.57849   0.97903   0.07827
C          C       0.58104   0.78013   0.02264   0.08237
C          C       0.21431   0.79842   0.02376   0.08019
C          C       0.19776   0.41705   0.02355   0.07995
C          C       0.37469   0.18792   0.02694  -0.05060
C          C       0.81346   0.18677   0.01940  -0.05077
C          C       0.81339   0.62273   0.02591  -0.04970
C          C       0.62478   0.80728   0.97553  -0.05083
C          C       0.18988   0.81840   0.97681  -0.04989
C          C       0.17975   0.37293   0.97658  -0.04967
C          C       0.29168   0.13632   0.12058  -0.04765
C          C       0.86395   0.15523   0.11435  -0.04806
C          C       0.85155   0.70708   0.11949  -0.04705
C          C       0.70831   0.85821   0.88195  -0.04861
C          C       0.14352   0.85555   0.88258  -0.04583
C          C       0.14722   0.29018   0.88221  -0.04570
C          C       0.27305   0.11209   0.06408  -0.23908
C          C       0.89171   0.16550   0.05908  -0.23900
C          C       0.84955   0.72705   0.06258  -0.23958
C          C       0.72482   0.88582   0.93743  -0.23853
C          C       0.11932   0.85108   0.93885  -0.23865
C          C       0.15235   0.27113   0.93869  -0.23987
C          C       0.31312   0.13709   0.01702   0.27549
C          C       0.86738   0.18085   0.01143   0.27466
C          C       0.83128   0.68632   0.01559   0.27507
C          C       0.68445   0.86143   0.98440   0.27373
C          C       0.14145   0.83275   0.98612   0.27420
C          C       0.16838   0.31120   0.98602   0.27479
C          C       0.24793   0.10895   0.16753   0.07970
C          C       0.89126   0.13936   0.16208   0.08223
C          C       0.87112   0.75156   0.16632   0.08060
C          C       0.75163   0.88642   0.83477   0.08331
C          C       0.11671   0.87202   0.83500   0.08115
C          C       0.13209   0.24719   0.83464   0.07791
C          C       0.12380   0.25565   0.67847  -0.19922
C          C       0.74618   0.86727   0.67936  -0.19795
C          C       0.13278   0.87949   0.67878  -0.19560
C          C       0.88011   0.74369   0.32280  -0.19444
C          C       0.25537   0.12753   0.32319  -0.20009
C          C       0.87181   0.12702   0.31705  -0.20015
C          C       0.07646   0.12902   0.67792  -0.34749
C          C       0.87235   0.94980   0.68041  -0.34497
C          C       0.05197   0.92523   0.67827  -0.34728
C          C       0.92822   0.87035   0.32291  -0.34974
C          C       0.12752   0.05458   0.32261  -0.35046
C          C       0.94298   0.07050   0.31769  -0.35086
C          C       0.20966   0.41128   0.17914  -0.20408
C          C       0.58951   0.79827   0.17799  -0.19912
C          C       0.19727   0.78851   0.17945  -0.20354
C          C       0.78998   0.58765   0.82276  -0.20127
C          C       0.40790   0.20179   0.82421  -0.20416
C          C       0.80061   0.21169   0.81634  -0.20319
C          C       0.26642   0.53886   0.17803  -0.35530
C          C       0.46164   0.72920   0.17933  -0.35600
C          C       0.26929   0.73297   0.17948  -0.35438
C          C       0.73140   0.45994   0.82220  -0.35615
C          C       0.53600   0.26908   0.82278  -0.35574
C          C       0.72702   0.26555   0.81822  -0.35612
N          N       0.59985   0.80300   0.28073  -0.27006
N          N       0.19397   0.79333   0.28222  -0.26833
N          N       0.20713   0.40408   0.28192  -0.26865
N          N       0.39810   0.19948   0.72158  -0.26801
N          N       0.80204   0.20601   0.71371  -0.26965
N          N       0.79602   0.59657   0.71991  -0.26838
N          N       0.73921   0.86233   0.57605  -0.26754
N          N       0.13679   0.87576   0.57568  -0.26760
N          N       0.12665   0.26342   0.57517  -0.26584
N          N       0.26218   0.13437   0.42630  -0.26435
N          N       0.86660   0.13032   0.41990  -0.26585
N          N       0.87897   0.73646   0.42606  -0.26585
N          N       0.40168   0.19446   0.92687  -0.27025
N          N       0.80882   0.21040   0.91935  -0.27340
N          N       0.79239   0.59549   0.92555  -0.27083
N          N       0.59610   0.80340   0.07509  -0.27004
N          N       0.19300   0.79320   0.07667  -0.27330
N          N       0.20417   0.40158   0.07642  -0.27165
N          N       0.26376   0.13058   0.22049  -0.26824
N          N       0.86735   0.13049   0.21415  -0.26829
N          N       0.87309   0.73477   0.21996  -0.27033
N          N       0.73746   0.86308   0.78228  -0.26957
N          N       0.13711   0.87585   0.78186  -0.26957
N          N       0.12746   0.26339   0.78149  -0.26972
O          O       0.87272   0.95173   0.57524  -0.20400
O          O       0.05111   0.92425   0.57312  -0.20759
O          O       0.07849   0.12960   0.57265  -0.20537
O          O       0.12787   0.05615   0.42815  -0.20822
O          O       0.94172   0.07019   0.42319  -0.20424
O          O       0.92847   0.87038   0.42838  -0.20788
O          O       0.46046   0.73049   0.07391  -0.19985
O          O       0.26645   0.73046   0.07410  -0.19860
O          O       0.26701   0.53735   0.07258  -0.19826
O          O       0.53693   0.26511   0.92831  -0.19808
O          O       0.73245   0.26870   0.92352  -0.19836
O          O       0.72855   0.45992   0.92769  -0.19664
O          O       0.63268   0.77710   0.53642  -0.42780
O          O       0.22339   0.85662   0.53654  -0.42706
O          O       0.14327   0.36801   0.53589  -0.42680
O          O       0.36500   0.22449   0.46635  -0.42700
O          O       0.78721   0.16157   0.45582  -0.42723
O          O       0.86255   0.63213   0.46611  -0.42751
O          O       0.70901   0.88582   0.31925  -0.43219
O          O       0.10850   0.81437   0.32056  -0.43352
O          O       0.18739   0.29814   0.32014  -0.43333
O          O       0.29227   0.11296   0.68299  -0.43411
O          O       0.88088   0.17433   0.67779  -0.43533
O          O       0.81656   0.70295   0.68054  -0.43160
O          O       0.12825   0.05329   0.21731  -0.20000
O          O       0.94443   0.07183   0.21221  -0.20009
O          O       0.92578   0.86998   0.21772  -0.19683
O          O       0.87187   0.95096   0.78552  -0.20037
O          O       0.05017   0.92325   0.78312  -0.19646
O          O       0.07811   0.12892   0.78307  -0.19827
O          O       0.53366   0.27330   0.71741  -0.20131
O          O       0.72156   0.26185   0.71312  -0.19806
O          O       0.73341   0.46073   0.71682  -0.20103
O          O       0.46327   0.72986   0.28473  -0.20001
O          O       0.27259   0.73629   0.28498  -0.20083
O          O       0.26626   0.53958   0.28347  -0.20144
O          O       0.37273   0.21241   0.18376  -0.43005
O          O       0.78121   0.15067   0.17433  -0.42897
O          O       0.83431   0.62233   0.18370  -0.43024
O          O       0.63142   0.77602   0.82049  -0.43103
O          O       0.21695   0.84592   0.82013  -0.43003
O          O       0.15360   0.37191   0.81958  -0.42998
O          O       0.29313   0.11322   0.96331  -0.43315
O          O       0.89494   0.18990   0.95893  -0.43102
O          O       0.83086   0.70730   0.96147  -0.43302
O          O       0.70226   0.88925   0.03696  -0.43054
O          O       0.11673   0.82842   0.03944  -0.43290
O          O       0.17299   0.29134   0.03959  -0.43341

