data_crystal

_audit_creation_method 'AiiDA-DDEC plugin'

_cell_length_a        43.76469
_cell_length_b        44.06911
_cell_length_c        10.21721

_cell_angle_alpha     91.04560
_cell_angle_beta     87.46742
_cell_angle_gamma     120.23686

_symmetry_space_group_name_Hall 'P 1'
_symmetry_space_group_name_H-M  'P 1'

loop_
_symmetry_equiv_pos_as_xyz
 'x,y,z'

loop_
_atom_site_label
_atom_site_type_symbol
_atom_site_fract_x
_atom_site_fract_y
_atom_site_fract_z
_atom_site_charge
H          H       0.56238   0.58127   0.41374   0.10995
H          H       0.56154   0.63709   0.42186   0.12146
H          H       0.49194   0.60870   0.25347   0.10934
H          H       0.49211   0.55279   0.25099   0.10310
H          H       0.52887   0.48385   0.37836   0.10089
H          H       0.58219   0.48066   0.30348   0.11732
H          H       0.64110   0.55498   0.12259   0.11419
H          H       0.58972   0.56154   0.18650   0.11057
H          H       0.47583   0.54261   0.45334   0.10332
H          H       0.41744   0.53828   0.44002   0.12433
H          H       0.37464   0.45244   0.20910   0.10778
H          H       0.43436   0.45903   0.21342   0.10647
H          H       0.44540   0.44319   0.41240   0.10509
H          H       0.42796   0.38024   0.41761   0.12122
H          H       0.50726   0.41064   0.20891   0.11373
H          H       0.52688   0.47387   0.18991   0.10533
H          H       0.67614   0.53561   0.06817   0.07131
H          H       0.34267   0.44326   0.43845   0.06420
H          H       0.66345   0.48030   0.25754   0.11158
H          H       0.70424   0.45946   0.16699   0.12583
H          H       0.73521   0.54343   0.06931   0.12411
H          H       0.29506   0.48561   0.61615   0.13254
H          H       0.22613   0.38099   0.83438   0.12205
H          H       0.29019   0.40379   0.87791   0.10551
H          H       0.21207   0.49611   0.17750   0.12718
H          H       0.11991   0.43430   0.44197   0.11170
H          H       0.15021   0.40671   0.31448   0.12314
H          H       0.15615   0.49719   0.22350   0.07411
H          H       0.11455   0.50783   0.33138   0.11525
H          H       0.06874   0.52284   0.39276   0.10891
H          H       0.01021   0.47187   0.56457   0.10441
H          H       0.05581   0.45692   0.49093   0.11708
H          H       0.79101   0.45930   0.18757   0.12426
H          H       0.84921   0.48219   0.29355   0.10155
H          H       0.82725   0.54786   0.07932   0.13050
H          H       0.88998   0.51354   0.43193   0.06208
H          H       0.89022   0.48537   0.11753   0.10792
H          H       0.93936   0.47964   0.19100   0.10072
H          H       0.99651   0.58997   0.28078   0.10482
H          H       0.94568   0.59504   0.21556   0.12467
H          H       0.04421   0.54409   0.02876   0.10080
H          H       0.10523   0.59388   0.97875   0.11334
H          H       0.10196   0.64219   0.34443   0.11545
H          H       0.04243   0.59225   0.39604   0.11094
H          H       0.96068   0.49031   0.47787   0.09856
H          H       0.89904   0.43710   0.02730   0.12126
H          H       0.92889   0.37952   0.24457   0.10488
H          H       0.97865   0.43478   0.16095   0.10463
H          H       0.50497   0.63677   0.41377   0.05987
H          H       0.49567   0.35415   0.06847   0.07622
H          H       0.54062   0.73026   0.10370   0.13381
H          H       0.45994   0.69843   0.21929   0.12729
H          H       0.47812   0.65593   0.28881   0.10527
H          H       0.41672   0.31982   0.28299   0.11461
H          H       0.39319   0.26811   0.43620   0.12940
H          H       0.48892   0.29267   0.08501   0.12774
H          H       0.40053   0.19177   0.56591   0.12422
H          H       0.42839   0.15408   0.54855   0.11227
H          H       0.48875   0.20696   0.19545   0.13046
H          H       0.54478   0.82151   0.16012   0.12483
H          H       0.48294   0.84085   0.40029   0.10852
H          H       0.46233   0.78516   0.27044   0.12302
H          H       0.46575   0.13761   0.46051   0.06870
H          H       0.54504   0.87864   0.18947   0.07482
H          H       0.44364   0.08461   0.40708   0.11255
H          H       0.45116   0.03282   0.40329   0.10901
H          H       0.53810   0.08411   0.12144   0.10638
H          H       0.53006   0.13599   0.12263   0.12153
H          H       0.54528   0.92493   0.30829   0.11686
H          H       0.55174   0.98182   0.37743   0.10913
H          H       0.50286   0.98649   0.03012   0.09885
H          H       0.47927   0.91348   0.49467   0.11153
H          H       0.43807   0.00455   0.11687   0.10474
H          H       0.38343   0.94597   0.10864   0.12322
H          H       0.42142   0.90829   0.41057   0.10760
H          H       0.47781   0.96542   0.40562   0.09877
H          H       0.58707   0.03033   0.12604   0.11071
H          H       0.64924   0.07414   0.17331   0.12159
H          H       0.61255   0.12127   0.46578   0.11420
H          H       0.55052   0.07696   0.42078   0.10518
H          H       0.67393   0.16979   0.38255   0.07071
H          H       0.92568   0.35222   0.45242   0.06056
H          H       0.15995   0.67594   0.29019   0.07451
H          H       0.39430   0.88661   0.06879   0.06386
H          H       0.72532   0.12389   0.39690   0.11380
H          H       0.79076   0.15143   0.42972   0.11920
H          H       0.72837   0.22098   0.88448   0.12100
H          H       0.81920   0.31036   0.94589   0.13250
H          H       0.88015   0.23320   0.46429   0.11883
H          H       0.91670   0.29897   0.47348   0.10307
H          H       0.19255   0.65970   0.97431   0.11147
H          H       0.25205   0.69778   0.85940   0.12485
H          H       0.21492   0.73653   0.27897   0.12571
H          H       0.30680   0.82616   0.26120   0.13227
H          H       0.33983   0.78289   0.84272   0.12411
H          H       0.38034   0.84230   0.93661   0.10157
H          H       0.57165   0.59211   0.93793   0.11397
H          H       0.57158   0.64829   0.94089   0.12271
H          H       0.49981   0.60426   0.78499   0.11030
H          H       0.49937   0.54766   0.77231   0.10061
H          H       0.53418   0.49984   0.85585   0.09870
H          H       0.58665   0.49392   0.78859   0.11591
H          H       0.64266   0.55666   0.59565   0.11467
H          H       0.59040   0.56132   0.66281   0.11377
H          H       0.47461   0.54618   0.94583   0.10525
H          H       0.41489   0.53937   0.94054   0.12615
H          H       0.37069   0.44722   0.68984   0.11051
H          H       0.42906   0.45114   0.70125   0.10571
H          H       0.44677   0.44967   0.91313   0.10399
H          H       0.42819   0.38652   0.92629   0.12147
H          H       0.50298   0.40270   0.71586   0.11479
H          H       0.52050   0.46542   0.70889   0.10657
H          H       0.68066   0.54094   0.53874   0.07197
H          H       0.34226   0.44034   0.97608   0.06655
H          H       0.66576   0.48752   0.75502   0.11010
H          H       0.70862   0.47022   0.65543   0.12389
H          H       0.73955   0.54808   0.53649   0.12562
H          H       0.29739   0.49003   0.10869   0.13230
H          H       0.23201   0.39702   0.25637   0.12258
H          H       0.29388   0.41496   0.31469   0.10552
H          H       0.20902   0.49129   0.68833   0.12540
H          H       0.11491   0.42154  -0.00184   0.11205
H          H       0.14351   0.38999   0.88744   0.12261
H          H       0.15465   0.49531   0.72310   0.07303
H          H       0.11779   0.51206   0.82091   0.11474
H          H       0.07244   0.52632   0.89531   0.11056
H          H       0.01396   0.47364   0.04208   0.10069
H          H       0.05932   0.45726   0.98348   0.11506
H          H       0.79625   0.47162   0.67110   0.12466
H          H       0.85272   0.49137   0.78554   0.10037
H          H       0.83010   0.55002   0.55220   0.13506
H          H       0.89045   0.51710   0.93878   0.06268
H          H       0.89156   0.48545   0.61097   0.11304
H          H       0.94106   0.48094   0.68851   0.10036
H          H       0.99652   0.59144   0.77485   0.10536
H          H       0.94613   0.59579   0.69840   0.12506
H          H       0.04523   0.54361   0.53569   0.10279
H          H       0.10592   0.59334   0.48253   0.11405
H          H       0.10223   0.64440   0.84109   0.11640
H          H       0.04285   0.59468   0.89485   0.11260
H          H       0.95081   0.49304   0.95252   0.10233
H          H       0.91077   0.43375   0.56486   0.12267
H          H       0.94036   0.38058   0.80778   0.11047
H          H       0.99224   0.43556   0.73894   0.10709
H          H       0.51374   0.64893   0.89182   0.06606
H          H       0.49597   0.34945   0.56242   0.07642
H          H       0.53569   0.72131   0.61324   0.13198
H          H       0.45916   0.70637   0.72717   0.12410
H          H       0.48089   0.66532   0.78184   0.10918
H          H       0.41812   0.31357   0.78041   0.11661
H          H       0.39717   0.26249   0.93640   0.12884
H          H       0.49090   0.28821   0.57512   0.12884
H          H       0.40718   0.18893   0.06524   0.12631
H          H       0.43657   0.15245   0.04945   0.10959
H          H       0.49512   0.20454   0.69238   0.12874
H          H       0.53980   0.81275   0.66150   0.12472
H          H       0.48409   0.84882   0.91645   0.10958
H          H       0.46111   0.79255   0.78807   0.12351
H          H       0.47446   0.13768   0.96598   0.06682
H          H       0.53801   0.86807   0.69213   0.07292
H          H       0.45248   0.08553   0.92264   0.11555
H          H       0.45785   0.03275   0.92593   0.10269
H          H       0.54412   0.07916   0.63953   0.10525
H          H       0.53842   0.13248   0.63395   0.12077
H          H       0.55993   0.92589   0.75222   0.11560
H          H       0.56645   0.98215   0.82921   0.11310
H          H       0.48408   0.96884   0.58095   0.10348
H          H       0.49691   0.92885   0.95729   0.11022
H          H       0.44283   0.01174   0.65077   0.10736
H          H       0.38574   0.95723   0.61292   0.12700
H          H       0.41639   0.90005   0.85986   0.10379
H          H       0.47248   0.95413   0.89960   0.10118
H          H       0.58401   0.02783   0.59139   0.10938
H          H       0.64691   0.07363   0.61235   0.12295
H          H       0.61951   0.10973   0.96854   0.11500
H          H       0.55679   0.06320   0.94945   0.10272
H          H       0.67288   0.16329   0.86150   0.07232
H          H       0.91940   0.35446   0.00722   0.05854
H          H       0.15672   0.68562   0.76103   0.07575
H          H       0.40321   0.87780   0.61589   0.06271
H          H       0.73110   0.12471   0.84348   0.11506
H          H       0.79573   0.15522   0.89550   0.11934
H          H       0.73093   0.22447   0.41699   0.12074
H          H       0.82468   0.31058   0.45866   0.13190
H          H       0.87818   0.23728  -0.00123   0.12082
H          H       0.91103   0.30259   0.02767   0.10383
H          H       0.19438   0.65778   0.48447   0.10946
H          H       0.25626   0.69158   0.38368   0.12640
H          H       0.21247   0.74358   0.74184   0.12677
H          H       0.30549   0.83160   0.71986   0.13272
H          H       0.34782   0.77298   0.38311   0.12492
H          H       0.38877   0.83303   0.47187   0.10992
C          C       0.49278   0.50245   0.06682  -0.02953
C          C       0.52585   0.53220   0.06661  -0.03478
C          C       0.53081   0.56758   0.09068   0.04902
C          C       0.55770   0.53003   0.02776   0.06942
C          C       0.48721   0.46635   0.05567   0.05826
C          C       0.45709   0.49704   0.57748   0.05007
C          C       0.54874   0.58635   0.49532  -0.12333
C          C       0.54819   0.61763   0.49937  -0.18204
C          C       0.52918   0.62389   0.60079   0.20527
C          C       0.50996   0.60533   0.18624  -0.18046
C          C       0.50992   0.57379   0.18403  -0.11502
C          C       0.55381   0.49947   0.42570  -0.13208
C          C       0.58325   0.49741   0.38473  -0.15286
C          C       0.61695   0.52282   0.95224   0.19917
C          C       0.61779   0.54268   0.06362  -0.16958
C          C       0.58878   0.54644   0.09967  -0.12625
C          C       0.45301   0.52185   0.50657  -0.11353
C          C       0.42034   0.51982   0.50003  -0.17552
C          C       0.39005   0.49213   0.56264   0.21141
C          C       0.39665   0.47274   0.15078  -0.19433
C          C       0.43026   0.47676   0.15366  -0.12068
C          C       0.45803   0.43425   0.47885  -0.12180
C          C       0.44818   0.39898   0.48125  -0.17495
C          C       0.46599   0.39402   0.07003   0.20079
C          C       0.49498   0.41936   0.14000  -0.18399
C          C       0.50531   0.45478   0.13210  -0.11881
C          C       0.67148   0.52406   0.96948   0.06336
C          C       0.33423   0.46074   0.48480   0.06793
C          C       0.69805   0.51614   0.91407   0.05476
C          C       0.29759   0.45105   0.46528   0.05431
C          C       0.68959   0.49034   0.29610  -0.11581
C          C       0.71218   0.47850   0.24593  -0.12763
C          C       0.74457   0.49265   0.30316   0.02486
C          C       0.75402   0.51957   0.92270   0.02670
C          C       0.73049   0.52842   0.97924  -0.17816
C          C       0.28059   0.46654   0.54080  -0.15712
C          C       0.24632   0.45548   0.51078   0.02444
C          C       0.22876   0.43074   0.40805   0.03018
C          C       0.24093   0.40444   0.89276  -0.13326
C          C       0.27972   0.42604   0.36822  -0.12794
C          C       0.77861   0.49285   0.31021   0.03122
C          C       0.19413   0.42646   0.97063   0.02229
C          C       0.21348   0.45665   0.05093   0.02688
C          C       0.19794   0.47366   0.11353  -0.17727
C          C       0.16132   0.46003   0.09077   0.05529
C          C       0.14272   0.43042   0.01062  -0.11379
C          C       0.16304   0.42452   0.39502  -0.12801
C          C       0.14249   0.47698   0.14889   0.06074
C          C       0.08962   0.48064   0.15298   0.19109
C          C       0.09268   0.50034   0.26705  -0.16067
C          C       0.06651   0.50859   0.30239  -0.12479
C          C       0.03679   0.49777   0.22615   0.08058
C          C       0.03531   0.48027   0.10786  -0.13868
C          C       0.06074   0.47132   0.07361  -0.14888
C          C       0.00512   0.50092   0.26648  -0.03267
C          C       0.79899   0.47890   0.26450  -0.12934
C          C       0.83171   0.49205   0.32438  -0.10990
C          C       0.84288   0.51719   0.42493   0.05483
C          C       0.82001   0.53195   0.99114  -0.15222
C          C       0.78914   0.52073   0.92786   0.01878
C          C       0.87592   0.52546   0.48255   0.07604
C          C       0.91493   0.54108   0.15487   0.21155
C          C       0.91344   0.50833   0.15469  -0.19636
C          C       0.94121   0.50506   0.19763  -0.11776
C          C       0.97257   0.53432   0.24054   0.05591
C          C       0.97298   0.56659   0.24818  -0.12468
C          C       0.94450   0.56981   0.20982  -0.16735
C          C       0.00487   0.53169   0.25135  -0.02419
C          C       0.03948   0.56393   0.21786   0.07405
C          C       0.05732   0.56518   0.09883  -0.13281
C          C       0.09116   0.59289   0.07033  -0.15032
C          C       0.10837   0.62091   0.15823   0.19445
C          C       0.08978   0.62078   0.27470  -0.16722
C          C       0.05585   0.59262   0.30337  -0.13177
C          C       0.97433   0.46720   0.31446   0.06025
C          C       0.95401   0.46588   0.42777  -0.12520
C          C       0.92574   0.43434   0.47600  -0.17329
C          C       0.91724   0.40242   0.41353   0.20827
C          C       0.93679   0.40372   0.29835  -0.18319
C          C       0.96474   0.43522   0.25077  -0.12700
C          C       0.51265   0.65713   0.48912   0.07486
C          C       0.50639   0.68546   0.45581   0.05114
C          C       0.46822   0.34249   0.10758   0.06674
C          C       0.45321   0.30892   0.17759   0.04964
C          C       0.52350   0.72621   0.02325  -0.16098
C          C       0.51271   0.74917   0.98819   0.02020
C          C       0.48913   0.74181   0.88330   0.02577
C          C       0.47579   0.70362   0.30471  -0.12814
C          C       0.48601   0.67972   0.34550  -0.11234
C          C       0.42620   0.30129   0.27351  -0.10920
C          C       0.41284   0.27227   0.35897  -0.12724
C          C       0.42757   0.25113   0.34100   0.02551
C          C       0.45413   0.25760   0.24058   0.02317
C          C       0.46794   0.28649   0.15920  -0.17777
C          C       0.49005   0.77573   0.90683   0.02600
C          C       0.42977   0.22069   0.39009   0.02789
C          C       0.41922   0.19534   0.48572  -0.12644
C          C       0.43508   0.17429   0.47507  -0.12734
C          C       0.45890   0.17774   0.37147   0.05447
C          C       0.47005   0.20464   0.27378  -0.16088
C          C       0.45564   0.22596   0.28792   0.02019
C          C       0.51380   0.78391   0.01105   0.02087
C          C       0.52689   0.81486   0.08005  -0.17795
C          C       0.51496   0.83822   0.04284   0.05075
C          C       0.49164   0.82957   0.93952  -0.11640
C          C       0.47844   0.79044   0.35519  -0.12722
C          C       0.47012   0.15175   0.36763   0.06914
C          C       0.48745   0.11487   0.26915   0.20191
C          C       0.52621   0.87162   0.11088   0.05811
C          C       0.52030   0.92292   0.12646   0.19763
C          C       0.46506   0.08510   0.34732  -0.17895
C          C       0.46909   0.05580   0.34439  -0.12046
C          C       0.49568   0.05481   0.26456   0.05962
C          C       0.51788   0.08452   0.18608  -0.11947
C          C       0.51357   0.11371   0.18682  -0.16638
C          C       0.53645   0.93840   0.24520  -0.16831
C          C       0.53980   0.97034   0.28483  -0.12409
C          C       0.52652   0.98739   0.20995   0.07782
C          C       0.51168   0.97248   0.09009  -0.13576
C          C       0.50836   0.94085   0.04983  -0.15125
C          C       0.52810   0.02080   0.24966  -0.04005
C          C       0.49725   0.02215   0.25776  -0.02378
C          C       0.46249   0.98896   0.26034   0.05058
C          C       0.56407   0.05012   0.27102   0.05885
C          C       0.43479   0.98347   0.18046  -0.11905
C          C       0.40388   0.95072   0.17629  -0.18767
C          C       0.39921   0.92296   0.25656   0.21439
C          C       0.42530   0.92930   0.34555  -0.17307
C          C       0.45663   0.96138   0.34379  -0.12392
C          C       0.59261   0.05022   0.20032  -0.12676
C          C       0.62732   0.07466   0.22564  -0.16401
C          C       0.63536   0.10082   0.32126   0.20015
C          C       0.60706   0.10198   0.38881  -0.18028
C          C       0.57215   0.07682   0.36458  -0.12055
C          C       0.68703   0.15401   0.37910   0.06344
C          C       0.72482   0.17203   0.40547   0.05787
C          C       0.89774   0.34527   0.46203   0.06332
C          C       0.87287   0.30775   0.47005   0.05747
C          C       0.16519   0.67166   0.18709   0.06574
C          C       0.20050   0.69574   0.12909   0.05426
C          C       0.37162   0.87288   0.13864   0.07306
C          C       0.34578   0.83731   0.10032   0.05374
C          C       0.74177   0.15209   0.40993  -0.10010
C          C       0.77825   0.16736   0.42790  -0.12726
C          C       0.79670   0.20342   0.44151   0.02717
C          C       0.77895   0.22419   0.91193   0.03020
C          C       0.74342   0.20748   0.88704  -0.17516
C          C       0.83074   0.29381   0.95820  -0.15014
C          C       0.81298   0.25794   0.94375   0.02653
C          C       0.83182   0.23554   0.45711   0.03356
C          C       0.86772   0.24923   0.46516  -0.13492
C          C       0.88799   0.28621   0.47122  -0.12729
C          C       0.21127   0.68533   0.01300  -0.11476
C          C       0.24441   0.70644   0.94892  -0.12935
C          C       0.26598   0.73837   0.00713   0.02470
C          C       0.25571   0.74949   0.12515   0.02464
C          C       0.22338   0.72881   0.18888  -0.17675
C          C       0.31287   0.81608   0.17190  -0.15526
C          C       0.29100   0.78373   0.11893   0.02263
C          C       0.30062   0.77180   0.00079   0.03183
C          C       0.33240   0.79156   0.93262  -0.13071
C          C       0.35486   0.82498   0.98592  -0.12146
C          C       0.49015   0.49534   0.57083  -0.02687
C          C       0.52384   0.52428   0.56772  -0.03708
C          C       0.52952   0.55995   0.58988   0.05522
C          C       0.55541   0.52196   0.52803   0.06795
C          C       0.48364   0.45889   0.56282   0.05609
C          C       0.45889   0.50258   0.07727   0.05456
C          C       0.55450   0.59581   0.00871  -0.11944
C          C       0.55442   0.62740   0.00947  -0.18737
C          C       0.53091   0.63202   0.09442   0.20696
C          C       0.51348   0.59925   0.70362  -0.17371
C          C       0.51333   0.56763   0.69692  -0.12075
C          C       0.55753   0.51132   0.91453  -0.13308
C          C       0.58645   0.50784   0.87731  -0.15180
C          C       0.61580   0.51734   0.44604   0.19759
C          C       0.61794   0.54068   0.54667  -0.16955
C          C       0.58839   0.54322   0.58524  -0.12436
C          C       0.45280   0.52563   0.00368  -0.11561
C          C       0.41948   0.52224   0.00168  -0.17254
C          C       0.39061   0.49474   0.07118   0.20799
C          C       0.39393   0.46810   0.63858  -0.19465
C          C       0.42681   0.47063   0.64540  -0.12051
C          C       0.46018   0.44114   0.97758  -0.12116
C          C       0.44961   0.40575   0.98453  -0.17431
C          C       0.46402   0.38696   0.56800   0.20136
C          C       0.49127   0.41180   0.64598  -0.18384
C          C       0.50058   0.44698   0.64378  -0.11563
C          C       0.67310   0.52408   0.45147   0.05891
C          C       0.33382   0.45896   0.00964   0.06083
C          C       0.69892   0.51482   0.39895   0.05324
C          C       0.29682   0.44779   0.99227   0.05479
C          C       0.69098   0.49587   0.79909  -0.11519
C          C       0.71484   0.48623   0.74332  -0.12771
C          C       0.74610   0.49844   0.80718   0.02320
C          C       0.75484   0.51808   0.40584   0.02536
C          C       0.73277   0.52955   0.45601  -0.17949
C          C       0.28132   0.46704   0.04969  -0.15118
C          C       0.24633   0.45399   0.02625   0.02488
C          C       0.22642   0.42336   0.94765   0.02811
C          C       0.24471   0.41552   0.33523  -0.13028
C          C       0.27698   0.41748   0.91789  -0.12932
C          C       0.78045   0.49915   0.81267   0.03136
C          C       0.19664   0.43402   0.43258   0.02610
C          C       0.21344   0.45826   0.53657   0.02609
C          C       0.19689   0.47310   0.60793  -0.18148
C          C       0.16207   0.46357   0.57021   0.05457
C          C       0.14623   0.44002   0.46618  -0.11427
C          C       0.15866   0.41281   0.94849  -0.13024
C          C       0.14234   0.47843   0.63816   0.06133
C          C       0.08985   0.48291   0.64971   0.19179
C          C       0.09450   0.50331   0.76313  -0.16081
C          C       0.06856   0.51130   0.80584  -0.12267
C          C       0.03732   0.49941   0.73795   0.07493
C          C       0.03365   0.48045   0.62148  -0.13520
C          C       0.05901   0.47202   0.57970  -0.14947
C          C       0.00579   0.50264   0.78166  -0.03682
C          C       0.80231   0.48785   0.75824  -0.12985
C          C       0.83414   0.49932   0.82270  -0.10949
C          C       0.84318   0.52055   0.93507   0.05202
C          C       0.82121   0.53121   0.47234  -0.15504
C          C       0.78959   0.51858   0.41280   0.02031
C          C       0.87575   0.52773   0.99384   0.07349
C          C       0.91593   0.54143   0.64217   0.21092
C          C       0.91468   0.50880   0.64645  -0.19276
C          C       0.94257   0.50624   0.69202  -0.11778
C          C       0.97336   0.53573   0.73731   0.05261
C          C       0.97345   0.56789   0.74052  -0.12326
C          C       0.94517   0.57064   0.69656  -0.16609
C          C       0.00536   0.53309   0.75650  -0.02062
C          C       0.03998   0.56512   0.72025   0.07307
C          C       0.05796   0.56555   0.60267  -0.13263
C          C       0.09173   0.59320   0.57271  -0.14627
C          C       0.10868   0.62223   0.65667   0.19308
C          C       0.09003   0.62276   0.77218  -0.16520
C          C       0.05622   0.59457   0.80262  -0.13130
C          C       0.97547   0.46939   0.83450   0.05379
C          C       0.94863   0.46842   0.91999  -0.12103
C          C       0.91921   0.43695   0.96159  -0.16972
C          C       0.91553   0.40438   0.92286   0.21101
C          C       0.94295   0.40520   0.84261  -0.18580
C          C       0.97214   0.43666   0.80137  -0.12712
C          C       0.51802   0.66702   0.97369   0.07512
C          C       0.51060   0.69496   0.94572   0.05380
C          C       0.46838   0.33660   0.60077   0.06773
C          C       0.45470   0.30333   0.67128   0.05083
C          C       0.51946   0.71725   0.52991  -0.15556
C          C       0.50982   0.74062   0.48875   0.01752
C          C       0.48793   0.73367   0.37860   0.02920
C          C       0.47655   0.71196   0.80808  -0.12682
C          C       0.48863   0.68884   0.84037  -0.11803
C          C       0.42818   0.29551   0.76973  -0.11099
C          C       0.41632   0.26700   0.85671  -0.13062
C          C       0.43200   0.24677   0.83746   0.02548
C          C       0.45811   0.25345   0.73501   0.02504
C          C       0.47046   0.28183   0.65181  -0.17653
C          C       0.48917   0.76785   0.39805   0.02689
C          C       0.43545   0.21723   0.88733   0.02527
C          C       0.42571   0.19245   0.98448  -0.12782
C          C       0.44241   0.17219   0.97485  -0.12360
C          C       0.46636   0.17606   0.87118   0.05560
C          C       0.47633   0.20208   0.77068  -0.15864
C          C       0.46099   0.22261   0.78350   0.02262
C          C       0.51117   0.77558   0.50780   0.02411
C          C       0.52319   0.80629   0.57745  -0.18008
C          C       0.51201   0.82989   0.53512   0.05125
C          C       0.49032   0.82165   0.42675  -0.11660
C          C       0.47858   0.79812   0.86873  -0.13079
C          C       0.47866   0.15098   0.87127   0.06762
C          C       0.49592   0.11351   0.78060   0.20391
C          C       0.52217   0.86275   0.60504   0.05939
C          C       0.51798   0.91486   0.62004   0.20092
C          C       0.47330   0.08482   0.86300  -0.17971
C          C       0.47617   0.05493   0.86435  -0.12019
C          C       0.50152   0.05196   0.78401   0.05826
C          C       0.52447   0.08088   0.70311  -0.12224
C          C       0.52148   0.11084   0.70008  -0.16524
C          C       0.54313   0.93501   0.71391  -0.17188
C          C       0.54687   0.96686   0.75729  -0.12048
C          C       0.52516   0.97943   0.71230   0.06774
C          C       0.50065   0.95935   0.61744  -0.12730
C          C       0.49737   0.92823   0.57142  -0.16055
C          C       0.52868   0.01328   0.75609  -0.03332
C          C       0.49953   0.01754   0.77474  -0.02602
C          C       0.46293   0.98690   0.77402   0.04990
C          C       0.56556   0.04235   0.76833   0.05760
C          C       0.43691   0.98737   0.69830  -0.12061
C          C       0.40476   0.95692   0.67703  -0.16985
C          C       0.39791   0.92463   0.72901   0.21155
C          C       0.42224   0.92461   0.81430  -0.18910
C          C       0.45375   0.95526   0.83725  -0.11880
C          C       0.59170   0.04585   0.67378  -0.12607
C          C       0.62692   0.07153   0.68457  -0.16347
C          C       0.63768   0.09555   0.78947   0.20065
C          C       0.61162   0.09262   0.88347  -0.18301
C          C       0.57637   0.06623   0.87333  -0.11883
C          C       0.68826   0.15009   0.84110   0.06397
C          C       0.72638   0.17046   0.86326   0.05799
C          C       0.89208   0.34743   0.98718   0.06302
C          C       0.86744   0.30975   0.98795   0.05756
C          C       0.16402   0.67617   0.67122   0.06104
C          C       0.20012   0.69829   0.61595   0.05277
C          C       0.37546   0.87053   0.63766   0.06936
C          C       0.34930   0.83536   0.59667   0.05429
C          C       0.74561   0.15271   0.86410  -0.10273
C          C       0.78165   0.16966   0.89286  -0.12663
C          C       0.79739   0.20517   0.91855   0.02797
C          C       0.78002   0.22417   0.43889   0.03088
C          C       0.74429   0.20933   0.42134  -0.17635
C          C       0.83534   0.29304   0.46233  -0.15111
C          C       0.81580   0.25710   0.45538   0.02735
C          C       0.83028   0.23773   0.95433   0.03562
C          C       0.86500   0.25236   0.98788  -0.13437
C          C       0.88315   0.28909   0.00505  -0.12544
C          C       0.21269   0.68437   0.51609  -0.11521
C          C       0.24724   0.70310   0.46011  -0.12700
C          C       0.26828   0.73651   0.50835   0.02455
C          C       0.25579   0.75159   0.60701   0.02518
C          C       0.22224   0.73310   0.66401  -0.17758
C          C       0.31341   0.81824   0.64732  -0.15302
C          C       0.29177   0.78496   0.60151   0.02326
C          C       0.30391   0.76888   0.50502   0.03065
C          C       0.33833   0.78501   0.45554  -0.12918
C          C       0.36108   0.81880   0.50579  -0.12027
N          N       0.52473   0.65346   0.59787  -0.29712
N          N       0.64278   0.51156   0.39802  -0.30206
N          N       0.45034   0.35836   0.09938  -0.28060
N          N       0.35640   0.48817   0.54816  -0.27688
N          N       0.11150   0.46779   0.10808  -0.29236
N          N       0.88738   0.54403   0.10362  -0.29307
N          N       0.14251   0.64646   0.11584  -0.29746
N          N       0.88958   0.36973   0.45807  -0.28291
N          N       0.48309   0.14432   0.26355  -0.30339
N          N       0.51353   0.89087   0.07411  -0.28991
N          N       0.67103   0.12124   0.34741  -0.28080
N          N       0.37018   0.88850   0.24494  -0.28136
N          N       0.52667   0.66157   0.08683  -0.28918
N          N       0.64387   0.51677   0.90448  -0.29969
N          N       0.44928   0.35118   0.59268  -0.27940
N          N       0.35633   0.48906   0.05727  -0.27674
N          N       0.11207   0.47133   0.59543  -0.29736
N          N       0.88840   0.54383   0.58793  -0.29421
N          N       0.14307   0.64701   0.61350  -0.29813
N          N       0.88556   0.37196   0.95579  -0.28578
N          N       0.49196   0.14307   0.76942  -0.30429
N          N       0.51135   0.88322   0.56372  -0.30132
N          N       0.67401   0.11813   0.79970  -0.27764
N          N       0.36817   0.89292   0.69278  -0.27973

