data_crystal

_audit_creation_method 'AiiDA-DDEC plugin'

_cell_length_a        32.27287
_cell_length_b        31.97475
_cell_length_c         8.21813

_cell_angle_alpha     92.96968
_cell_angle_beta     91.85284
_cell_angle_gamma     61.11648

_symmetry_space_group_name_Hall 'P 1'
_symmetry_space_group_name_H-M  'P 1'

loop_
_symmetry_equiv_pos_as_xyz
 'x,y,z'

loop_
_atom_site_label
_atom_site_type_symbol
_atom_site_fract_x
_atom_site_fract_y
_atom_site_fract_z
_atom_site_charge
H          H       0.00732   0.53555   0.94813   0.12845
H          H       0.69188   0.76943   0.93948   0.12737
H          H       0.85904   0.73405   0.00023   0.13058
H          H       0.64342   0.61629   0.78998   0.12813
H          H       0.95985   0.40924   0.90159   0.12999
H          H       0.77749   0.45248   0.83645   0.12917
H          H       0.11951   0.39468   0.84915   0.10757
H          H       0.05143   0.51350   0.19356   0.10926
H          H       0.19008   0.40464   0.85835   0.10404
H          H       0.12306   0.52315   0.20526   0.11016
H          H       0.74313   0.86371   0.24002   0.09459
H          H       0.85878   0.80088   0.90548   0.11060
H          H       0.75521   0.93344   0.28815   0.10701
H          H       0.87092   0.87069   0.94970   0.10686
H          H       0.71378   0.89142   0.91576   0.10706
H          H       0.66280   0.81335   0.18154   0.11224
H          H       0.63343   0.95926   0.90628   0.10389
H          H       0.58251   0.88240   0.18122   0.11291
H          H       0.22942   0.44763   0.93174   0.10066
H          H       0.16169   0.55214   0.03625   0.10592
H          H       0.18536   0.60932   0.95741   0.10246
H          H       0.27952   0.45980   0.85280   0.10189
H          H       0.24093   0.62943   0.82727   0.10223
H          H       0.33420   0.47952   0.72540   0.10380
H          H       0.46326   0.54691   0.40997   0.09711
H          H       0.43763   0.64360   0.58289   0.10826
H          H       0.75233  -0.00020   0.23219   0.10237
H          H       0.70736   0.08117   0.22584   0.10323
H          H       0.84628   0.01781   0.01494   0.10681
H          H       0.69000   0.15965   0.12837   0.10102
H          H       0.82871   0.09578   0.91774   0.10685
H          H       0.74973   0.31178   0.70935   0.09853
H          H       0.65186   0.33221   0.57809   0.09875
H          H       0.51233   0.93337   0.08553   0.10841
H          H       0.42969   0.96123   0.03837   0.10558
H          H       0.49040   0.04345   0.85737   0.10535
H          H       0.35238   0.01785   0.92560   0.10673
H          H       0.41402   0.10033   0.75137   0.10128
H          H       0.20158   0.24729   0.58198   0.09900
H          H       0.14375   0.19528   0.61391   0.10632
H          H       0.28741   0.07462   0.87666   0.10092
H          H       0.35914   0.13594   0.62545   0.10580
H          H       0.21114   0.13820   0.78226   0.10371
H          H       0.28292   0.20102   0.54206   0.10610
H          H       0.67152   0.20342   0.91144   0.09960
H          H       0.81765   0.16905   0.95684   0.10972
H          H       0.65340   0.27655   0.77091   0.10308
H          H       0.79972   0.24168   0.81320   0.10790
H          H       0.35799   0.49924   0.54580   0.09815
H          H       0.30729   0.63429   0.81210   0.10212
H          H       0.42125   0.50958   0.43073   0.10455
H          H       0.37010   0.64525   0.69260   0.10430
H          H       0.55248   0.99180   0.93147   0.09825
H          H       0.84471   0.95015   0.03832   0.10288
H          H       0.00240   0.53127   0.45068   0.12691
H          H       0.69086   0.76729   0.45297   0.12735
H          H       0.85938   0.72740   0.49521   0.13009
H          H       0.63739   0.62406   0.30630   0.12869
H          H       0.95779   0.40297   0.40068   0.13105
H          H       0.76052   0.45514   0.35086   0.12370
H          H       0.11720   0.37878   0.38690   0.10456
H          H       0.05287   0.51567   0.64223   0.11165
H          H       0.19194   0.38056   0.37894   0.10446
H          H       0.12782   0.51726   0.63878   0.10988
H          H       0.74951   0.86307   0.72809   0.09567
H          H       0.86507   0.78547   0.39910   0.11265
H          H       0.76954   0.92761   0.75843   0.10827
H          H       0.88618   0.84937   0.42999   0.10579
H          H       0.71720   0.88910   0.43668   0.10461
H          H       0.66169   0.81168   0.68134   0.11095
H          H       0.63795   0.95820   0.42509   0.10456
H          H       0.58243   0.88159   0.67795   0.11300
H          H       0.23615   0.42084   0.40445   0.09705
H          H       0.18393   0.52633   0.52165   0.10330
H          H       0.21047   0.57538   0.41480   0.10683
H          H       0.30199   0.42340   0.36795   0.10278
H          H       0.26731   0.58857   0.26437   0.10798
H          H       0.35993   0.43658   0.22562   0.09860
H          H       0.48424   0.50618   0.83066   0.09800
H          H       0.45295   0.60359   0.00808   0.10133
H          H       0.77710   0.98660   0.70848   0.09920
H          H       0.74010   0.06817   0.72072   0.10478
H          H       0.87189   0.99535   0.46239   0.10470
H          H       0.72972   0.14560   0.63761   0.09944
H          H       0.86165   0.07269   0.38037   0.10137
H          H       0.78886   0.30176   0.25991   0.10265
H          H       0.69313   0.31643   0.12413   0.09748
H          H       0.51406   0.93421   0.58672   0.10422
H          H       0.43007   0.96719   0.56360   0.10439
H          H       0.49470   0.03864   0.33298   0.10360
H          H       0.35317   0.02309   0.44720   0.10657
H          H       0.41899   0.09464   0.22134   0.09890
H          H       0.20788   0.24633   0.05613   0.09749
H          H       0.14635   0.20106   0.13242   0.10713
H          H       0.28925   0.07465   0.36145   0.10195
H          H       0.36346   0.13454   0.11716   0.10078
H          H       0.21398   0.13937   0.26748   0.10562
H          H       0.28847   0.19894   0.02563   0.10430
H          H       0.71018   0.18947   0.41926   0.10075
H          H       0.85898   0.14534   0.43929   0.10381
H          H       0.69399   0.26564   0.30507   0.10258
H          H       0.84241   0.22237   0.32959   0.10245
H          H       0.38570   0.45211   0.01453   0.10326
H          H       0.33049   0.59217   0.24610   0.10587
H          H       0.44576   0.46402   0.87936   0.10134
H          H       0.38970   0.60445   0.11051   0.10590
H          H       0.55585   0.99179   0.43741   0.09988
H          H       0.86491   0.92993   0.49483   0.10154
H          H       0.77823   0.36818   0.19102   0.10739
H          H       0.65026   0.38307   0.96251   0.10228
H          H       0.76480   0.44150   0.07099   0.10978
H          H       0.63732   0.45598   0.84079   0.09831
H          H       0.74135   0.37444   0.68087   0.10727
H          H       0.61979   0.39885   0.38509   0.10145
H          H       0.73977   0.44416   0.57405   0.10155
H          H       0.61845   0.46913   0.27768   0.09908
H          H       0.53901   0.51075   0.69513   0.10754
H          H       0.50884   0.63121   0.02363   0.10713
H          H       0.61904   0.49912   0.65651   0.09971
H          H       0.58990   0.61799   0.98825   0.11213
H          H       0.50560   0.55348   0.24251   0.10143
H          H       0.50893   0.65346   0.60703   0.10615
H          H       0.58794   0.52799   0.17294   0.11075
H          H       0.59261   0.62587   0.54022   0.11041
H          H       0.15268   0.30928   0.22267   0.10545
H          H       0.07102   0.25836   0.93725   0.10820
H          H       0.09412   0.39179   0.16399   0.09587
H          H       0.01452   0.34038   0.86957   0.11089
H          H       0.13891   0.30555   0.75752   0.10417
H          H       0.07351   0.25282   0.39905   0.10708
H          H       0.08006   0.38840   0.69312   0.09409
H          H       0.01866   0.33526   0.32395   0.10509
C          C       0.83589   0.62677   0.86366   0.10097
C          C       0.78691   0.63786   0.84425   0.09839
C          C       0.77437   0.59946   0.81174   0.09860
C          C       0.81176   0.55069   0.80411   0.09372
C          C       0.86151   0.53909   0.82477   0.09879
C          C       0.87373   0.57659   0.85156   0.10224
C          C       0.76412   0.71598   0.91678   0.15916
C          C       0.81244   0.70548   0.93381   0.16066
C          C       0.71938   0.57327   0.80072   0.16572
C          C       0.93814   0.48289   0.87468   0.15974
C          C       0.75706   0.52500   0.80185   0.15696
C          C       0.95063   0.52012   0.89517   0.16087
C          C       0.99764   0.50733   0.94019  -0.19578
C          C       0.72811   0.76272   0.95545  -0.19480
C          C       0.82205   0.74307   0.98507  -0.19448
C          C       0.67246   0.58022   0.80425  -0.20305
C          C       0.97223   0.43544   0.90875  -0.18921
C          C       0.74695   0.48783   0.82889  -0.19276
C          C       0.01790   0.42320   0.96196   0.03357
C          C       0.03117   0.46079   0.97389   0.03709
C          C       0.73736   0.79933   0.00864   0.03588
C          C       0.78626   0.78949   0.02078   0.03679
C          C       0.66260   0.54313   0.83008   0.04493
C          C       0.70160   0.49561   0.86078   0.03784
C          C       0.07864   0.45575   0.01174   0.06252
C          C       0.11960   0.42305   0.92719  -0.12597
C          C       0.08174   0.49027   0.11799  -0.13261
C          C       0.15992   0.42822   0.93405  -0.13592
C          C       0.12185   0.49586   0.12365  -0.13133
C          C       0.16064   0.46679   0.02267   0.09645
C          C       0.79872   0.82751   0.06628   0.05905
C          C       0.77117   0.86539   0.17688  -0.12554
C          C       0.83671   0.82913   0.99291  -0.12421
C          C       0.77783   0.90492   0.20253  -0.13140
C          C       0.84362   0.86879   0.01832  -0.14020
C          C       0.81298   0.90879   0.11674   0.09715
C          C       0.69388   0.84577   0.03916   0.06347
C          C       0.68522   0.88879   0.97193  -0.12628
C          C       0.65610   0.84541   0.12023  -0.12998
C          C       0.63978   0.92755   0.96930  -0.13680
C          C       0.61084   0.88428   0.11950  -0.12682
C          C       0.60104   0.92536   0.03503   0.09432
C          C       0.19811   0.47749   0.98642  -0.13255
C          C       0.19401   0.52183   0.98888  -0.14563
C          C       0.22798   0.53297   0.91783   0.10567
C          C       0.21838   0.58077   0.90760  -0.14319
C          C       0.27057   0.49714   0.84862  -0.13205
C          C       0.24992   0.59208   0.83443  -0.13981
C          C       0.30152   0.50842   0.77479  -0.12750
C          C       0.29254   0.55607   0.76630   0.06197
C          C       0.44106   0.57912   0.48329  -0.13981
C          C       0.45670   0.61155   0.50500  -0.14366
C          C       0.81553   0.95294   0.10981  -0.14474
C          C       0.78204   0.99700   0.16396  -0.13859
C          C       0.77760   0.04285   0.12490   0.10380
C          C       0.73414   0.08442   0.15877  -0.13774
C          C       0.81208   0.04870   0.04263  -0.13170
C          C       0.72425   0.12865   0.10303  -0.13777
C          C       0.80229   0.09308   0.98871  -0.12533
C          C       0.75775   0.13408   0.01420   0.05957
C          C       0.71912   0.30607   0.69513  -0.12523
C          C       0.68219   0.33774   0.60544  -0.14161
C          C       0.55358   0.96272  -0.00163  -0.14035
C          C       0.51218   0.96244   0.02117  -0.14219
C          C       0.46663   0.99720   0.95654   0.10193
C          C       0.42622   0.99160   0.97328  -0.13323
C          C       0.46045   0.03738   0.87374  -0.13808
C          C       0.38232   0.02400   0.90979  -0.13482
C          C       0.41674   0.06976   0.81233  -0.13153
C          C       0.37616   0.06417   0.82706   0.06068
C          C       0.19688   0.21699   0.61203  -0.13400
C          C       0.15175   0.22448   0.60301  -0.14476
C          C       0.33013   0.09987   0.76131   0.05901
C          C       0.28707   0.10112   0.79807  -0.13214
C          C       0.32709   0.13629   0.66385  -0.13765
C          C       0.24362   0.13740   0.74549  -0.13291
C          C       0.28381   0.17306   0.61469  -0.13242
C          C       0.24076   0.17502   0.65545   0.09979
C          C       0.74632   0.17965   0.94190   0.06650
C          C       0.69981   0.21174   0.89052  -0.14196
C          C       0.78185   0.19180   0.91302  -0.12801
C          C       0.68964   0.25276   0.80895  -0.13794
C          C       0.77168   0.23291   0.83339  -0.12052
C          C       0.72567   0.26410   0.77638   0.10246
C          C       0.32785   0.56541   0.69093   0.06131
C          C       0.36094   0.53082   0.58208  -0.13275
C          C       0.33179   0.60704   0.72678  -0.13569
C          C       0.39641   0.53689   0.51521  -0.13298
C          C       0.36747   0.61321   0.65967  -0.13228
C          C       0.40106   0.57796   0.55328   0.09594
C          C       0.83247   0.62197   0.38421   0.09689
C          C       0.78344   0.63434   0.36510   0.09762
C          C       0.76991   0.59687   0.33295   0.09891
C          C       0.80567   0.54725   0.33255   0.09992
C          C       0.85600   0.53433   0.35125   0.09999
C          C       0.86906   0.57144   0.37459   0.09669
C          C       0.76235   0.71232   0.43008   0.15923
C          C       0.81108   0.70045   0.44353   0.16088
C          C       0.71190   0.57524   0.31343   0.16423
C          C       0.93354   0.47781   0.38648   0.16526
C          C       0.74728   0.52620   0.32242   0.15305
C          C       0.94638   0.51477   0.40764   0.15991
C          C       0.99391   0.50223   0.44424  -0.19591
C          C       0.72741   0.75978   0.46626  -0.19438
C          C       0.82207   0.73743   0.48565  -0.19471
C          C       0.66373   0.58660   0.31478  -0.20087
C          C       0.96895   0.43012   0.40934  -0.19020
C          C       0.73268   0.49182   0.34060  -0.19347
C          C       0.01507   0.41817   0.45553   0.04048
C          C       0.02871   0.45558   0.47078   0.03353
C          C       0.73798   0.79598   0.51396   0.03520
C          C       0.78752   0.78454   0.51881   0.03694
C          C       0.64952   0.55266   0.33927   0.04141
C          C       0.68549   0.50316   0.35730   0.03700
C          C       0.07724   0.44911   0.50123   0.06391
C          C       0.11866   0.40983   0.43895  -0.12851
C          C       0.08290   0.48651   0.57972  -0.12790
C          C       0.16142   0.41052   0.43697  -0.13761
C          C       0.12551   0.48741   0.57778  -0.12809
C          C       0.16544   0.45051   0.49766   0.09954
C          C       0.80350   0.82037   0.55437   0.05802
C          C       0.77878   0.86058   0.65968  -0.12505
C          C       0.84410   0.81622   0.47943  -0.12825
C          C       0.79015   0.89722   0.67572  -0.13189
C          C       0.85607   0.85258   0.49644  -0.13921
C          C       0.82776   0.89537   0.58701   0.09859
C          C       0.69524   0.84309   0.54606   0.06415
C          C       0.68781   0.88650   0.48545  -0.13144
C          C       0.65625   0.84354   0.62169  -0.12893
C          C       0.64287   0.92606   0.48177  -0.13817
C          C       0.61144   0.88298   0.61917  -0.12760
C          C       0.60303   0.92442   0.53959   0.09796
C          C       0.20785   0.45328   0.46107  -0.13923
C          C       0.21262   0.49332   0.46974  -0.13462
C          C       0.25059   0.49846   0.39896   0.10709
C          C       0.24316   0.54481   0.37190  -0.13034
C          C       0.29382   0.45977   0.34438  -0.13900
C          C       0.27563   0.55219   0.28793  -0.12295
C          C       0.32648   0.46721   0.26203  -0.13683
C          C       0.31806   0.51362   0.22866   0.06442
C          C       0.46194   0.53760   0.90743  -0.13274
C          C       0.47467   0.57234   0.92973  -0.13960
C          C       0.83562   0.93619   0.57293  -0.14655
C          C       0.80647   0.98124   0.63244  -0.13973
C          C       0.80605   0.02537   0.59450   0.09612
C          C       0.76651   0.06903   0.64392  -0.13018
C          C       0.84072   0.02809   0.50207  -0.13397
C          C       0.76038   0.11269   0.59570  -0.13720
C          C       0.83503   0.07184   0.45594  -0.13748
C          C       0.79414   0.11518   0.49817   0.06511
C          C       0.75968   0.29399   0.23898  -0.13575
C          C       0.72162   0.32484   0.15179  -0.13179
C          C       0.55615   0.96266   0.50167  -0.14364
C          C       0.51432   0.96306   0.52259  -0.13607
C          C       0.46890   0.99795   0.45801   0.09820
C          C       0.42754   0.99499   0.48634  -0.13212
C          C       0.46388   0.03515   0.36079  -0.13751
C          C       0.38385   0.02703   0.42048  -0.13553
C          C       0.42049   0.06703   0.29632  -0.13010
C          C       0.37890   0.06415   0.32268   0.05838
C          C       0.20179   0.21801   0.09880  -0.13368
C          C       0.15581   0.22840   0.10563  -0.14635
C          C       0.33334   0.09960   0.25324   0.06018
C          C       0.28978   0.10146   0.28682  -0.13198
C          C       0.33115   0.13533   0.15425  -0.13347
C          C       0.24680   0.13822   0.23322  -0.13400
C          C       0.28842   0.17212   0.10179  -0.13206
C          C       0.24486   0.17544   0.14322   0.09952
C          C       0.78577   0.16114   0.43709   0.06152
C          C       0.73931   0.19656   0.39934  -0.12752
C          C       0.82271   0.17137   0.40946  -0.13865
C          C       0.73020   0.23931   0.33380  -0.12547
C          C       0.81341   0.21490   0.34829  -0.14481
C          C       0.76711   0.24971   0.30628   0.10703
C          C       0.35299   0.52115   0.14188   0.05996
C          C       0.38661   0.48545   0.03732  -0.14096
C          C       0.35512   0.56419   0.16332  -0.12696
C          C       0.42038   0.49230   0.95982  -0.13745
C          C       0.38915   0.57093   0.08698  -0.13086
C          C       0.42327   0.53489   0.98377   0.09975
C          C       0.71548   0.36870   0.08476   0.10661
C          C       0.74748   0.38658   0.11243  -0.13614
C          C       0.67551   0.39599   0.98763  -0.13604
C          C       0.74005   0.42823   0.04290  -0.13381
C          C       0.66818   0.43787   0.91769  -0.12637
C          C       0.70081   0.45510   0.94006   0.06156
C          C       0.68109   0.37977   0.53996   0.10332
C          C       0.71479   0.39400   0.58948  -0.12733
C          C       0.64619   0.40885   0.42831  -0.14166
C          C       0.71398   0.43381   0.52828  -0.13375
C          C       0.64536   0.44924   0.36686  -0.12312
C          C       0.67944   0.46303   0.41484   0.06619
C          C       0.51842   0.56963   0.87395   0.09689
C          C       0.55009   0.53367   0.76425  -0.13070
C          C       0.53292   0.60188   0.94329  -0.13480
C          C       0.59563   0.52662   0.74352  -0.11476
C          C       0.57890   0.59428   0.92414  -0.13229
C          C       0.61230   0.55444   0.83318   0.05966
C          C       0.50200   0.60252   0.44074   0.09867
C          C       0.52493   0.56813   0.31400  -0.14363
C          C       0.52639   0.62528   0.51361  -0.14039
C          C       0.57181   0.55293   0.27595  -0.12269
C          C       0.57357   0.60960   0.47636  -0.13200
C          C       0.59819   0.57101   0.36432   0.06070
C          C       0.11782   0.27702   0.07872   0.10649
C          C       0.12277   0.31612   0.14237  -0.13814
C          C       0.07627   0.28754   0.98872  -0.14355
C          C       0.08957   0.36275   0.10960  -0.13281
C          C       0.04393   0.33438   0.95107  -0.11988
C          C       0.05025   0.37344   0.00778   0.05850
C          C       0.11287   0.27271   0.57519   0.10200
C          C       0.11344   0.31201   0.65908  -0.13569
C          C       0.07571   0.28236   0.46304  -0.14480
C          C       0.08052   0.35846   0.62357  -0.13106
C          C       0.04420   0.32913   0.42194  -0.12553
C          C       0.04704   0.36823   0.49826   0.05815
N          N       0.75184   0.68228   0.86874  -0.25472
N          N       0.84808   0.66032   0.90559  -0.25813
N          N       0.72872   0.61042   0.80358  -0.25750
N          N       0.89344   0.49303   0.83385  -0.25708
N          N       0.80294   0.51412   0.79553  -0.25246
N          N       0.91835   0.56677   0.88048  -0.25502
N          N       0.74893   0.67918   0.38741  -0.25364
N          N       0.84601   0.65476   0.42022  -0.25777
N          N       0.72393   0.61038   0.31668  -0.25530
N          N       0.88817   0.48816   0.35470  -0.25729
N          N       0.79420   0.51241   0.32514  -0.25716
N          N       0.91386   0.56143   0.39843  -0.25662

