data_crystal

_audit_creation_method 'AiiDA-DDEC plugin'

_cell_length_a        29.60977
_cell_length_b        29.05195
_cell_length_c         8.46911

_cell_angle_alpha     99.67920
_cell_angle_beta     89.87381
_cell_angle_gamma     59.22382

_symmetry_space_group_name_Hall 'P 1'
_symmetry_space_group_name_H-M  'P 1'

loop_
_symmetry_equiv_pos_as_xyz
 'x,y,z'

loop_
_atom_site_label
_atom_site_type_symbol
_atom_site_fract_x
_atom_site_fract_y
_atom_site_fract_z
_atom_site_charge
H          H       0.83623   0.00210   0.94304   0.12498
H          H       0.47409   0.21471   0.90413   0.12902
H          H       0.64498   0.20656   0.93683   0.12873
H          H       0.46382   0.02862   0.01802   0.13064
H          H       0.82400   0.84559   0.04249   0.13163
H          H       0.62883   0.84879   0.98055   0.12834
H          H       0.98706   0.84016   0.95920   0.09883
H          H       0.88492   0.01478   0.08143   0.11010
H          H       0.06346   0.85022   0.94220   0.10268
H          H       0.96127   0.02506   0.05906   0.10452
H          H       0.96097   0.85872   0.72949   0.10010
H          H       0.89720   0.77746   0.42320   0.11428
H          H       0.03384   0.77063   0.77177   0.10397
H          H       0.96862   0.68875   0.47190   0.10771
H          H       0.50827   0.36852   0.10070   0.10581
H          H       0.63608   0.25421   0.73731   0.11229
H          H       0.52617   0.44012   0.06762   0.10105
H          H       0.65457   0.32569   0.70489   0.10705
H          H       0.49061   0.35067   0.78765   0.09968
H          H       0.41381   0.28819   0.03835   0.11147
H          H       0.40476   0.43393   0.78519   0.10676
H          H       0.32764   0.36927   0.02409   0.10569
H          H       0.40042   0.02514   0.47687   0.11260
H          H       0.46598   0.88988   0.72212   0.09566
H          H       0.31166   0.04546   0.55431   0.10794
H          H       0.37815   0.90679   0.78723   0.10631
H          H       0.48524   0.84853   0.39712   0.10718
H          H       0.61306   0.81589   0.68886   0.11030
H          H       0.49338   0.76215   0.42790   0.10669
H          H       0.62234   0.72899   0.71638   0.10853
H          H       0.10284   0.90173   0.95745   0.09769
H          H       0.03355   0.02260   0.93681   0.10618
H          H       0.08662   0.05235   0.80570   0.10664
H          H       0.16541   0.91254   0.03180   0.10416
H          H       0.17153   0.04522   0.74504   0.10792
H          H       0.25034   0.90479   0.96880   0.10835
H          H       0.30150   0.93317   0.86490   0.09831
H          H       0.25280   0.02177   0.65945   0.10201
H          H       0.51900   0.49448   0.87145   0.10196
H          H       0.49122   0.56929   0.71805   0.10361
H          H       0.64265   0.49903   0.90432   0.10959
H          H       0.50172   0.64249   0.65140   0.10432
H          H       0.65292   0.57332   0.84057   0.10698
H          H       0.61703   0.66022   0.75840   0.10250
H          H       0.52661   0.68595   0.54434   0.09616
H          H       0.26033   0.42382   0.85865   0.10658
H          H       0.18376   0.47043   0.69235   0.10503
H          H       0.23054   0.56458   0.02178   0.10743
H          H       0.10748   0.55517   0.63808   0.10863
H          H       0.15302   0.64978   0.97145   0.10584
H          H       0.07880   0.69678   0.84616   0.09669
H          H       0.04993   0.63407   0.57781   0.10102
H          H       0.63945   0.42000   0.80998   0.10801
H          H       0.31168   0.49321   0.89007   0.10150
H          H       0.83454   0.00731   0.48027   0.12636
H          H       0.47053   0.21721   0.44999   0.13173
H          H       0.64011   0.21266   0.46651   0.12514
H          H       0.46321   0.03077   0.55284   0.13007
H          H       0.82567   0.84839   0.57512   0.12964
H          H       0.62891   0.85107   0.50244   0.12994
H          H       0.98499   0.84277   0.44359   0.09920
H          H       0.88828   0.01634   0.61099   0.10895
H          H       0.06213   0.85089   0.40804   0.10321
H          H       0.96517   0.02500   0.56932   0.10411
H          H       0.95228   0.85724   0.23301   0.10011
H          H       0.89817   0.77436   0.89138   0.10917
H          H       0.02321   0.76927   0.28576   0.10216
H          H       0.96786   0.68583   0.94760   0.10709
H          H       0.49422   0.37508   0.58517   0.10583
H          H       0.63633   0.25649   0.27619   0.11508
H          H       0.51208   0.44704   0.55556   0.10198
H          H       0.65548   0.32828   0.25323   0.11016
H          H       0.48804   0.34048   0.26209   0.09660
H          H       0.40942   0.29804   0.58465   0.10741
H          H       0.40310   0.42260   0.23932   0.10434
H          H       0.32374   0.37669   0.54874   0.10358
H          H       0.40004   0.02131   0.95361   0.10894
H          H       0.46814   0.89497   0.23281   0.09617
H          H       0.31188   0.04138   0.03955   0.10653
H          H       0.38090   0.91156   0.30775   0.10423
H          H       0.48060   0.85063   0.89824   0.10540
H          H       0.61293   0.81448   0.17265   0.11124
H          H       0.48729   0.76545   0.93405   0.10699
H          H       0.61956   0.72951   0.20948   0.10928
H          H       0.10361   0.89997   0.43022   0.09682
H          H       0.03664   0.02391   0.45121   0.10632
H          H       0.08897   0.05633   0.33375   0.10679
H          H       0.16931   0.90510   0.50554   0.10854
H          H       0.17434   0.04887   0.27506   0.10988
H          H       0.25451   0.89752   0.44568   0.10619
H          H       0.30508   0.93043   0.36291   0.09961
H          H       0.25444   0.02101   0.16439   0.10258
H          H       0.51405   0.49592   0.36033   0.09853
H          H       0.48917   0.56749   0.20486   0.10212
H          H       0.63446   0.50618   0.42656   0.10708
H          H       0.49951   0.64028   0.13387   0.10502
H          H       0.64499   0.57943   0.35515   0.10602
H          H       0.61359   0.66038   0.25175   0.10300
H          H       0.51930   0.69067   0.05205   0.09575
H          H       0.25602   0.42395   0.36435   0.10616
H          H       0.18019   0.46878   0.18959   0.10720
H          H       0.22874   0.56391   0.50571   0.10980
H          H       0.10316   0.55295   0.13539   0.10844
H          H       0.15077   0.64879   0.45454   0.10455
H          H       0.07640   0.69516   0.33040   0.09539
H          H       0.04367   0.63181   0.07679   0.10233
H          H       0.63475   0.42479   0.34616   0.10740
H          H       0.31048   0.48912   0.35564   0.10224
C          C       0.64803   0.07046   0.93263   0.09520
C          C       0.59800   0.07320   0.93129   0.09766
C          C       0.59558   0.02457   0.94518   0.09865
C          C       0.64335   0.97413   0.95478   0.10317
C          C       0.69396   0.97201   0.95975   0.10351
C          C       0.69673   0.01899   0.94275   0.09812
C          C       0.55654   0.16409   0.92188   0.16390
C          C       0.60605   0.16153   0.92763   0.16121
C          C       0.54765   0.98434   0.97510   0.15827
C          C       0.78205   0.92576   0.99021   0.16356
C          C       0.59543   0.93335   0.97437   0.16256
C          C       0.78553   0.97134   0.96515   0.15986
C          C       0.83501   0.96751   0.97030  -0.19481
C          C       0.51061   0.21471   0.91605  -0.18982
C          C       0.60679   0.20986   0.93012  -0.19488
C          C       0.49886   0.98814   0.00565  -0.18845
C          C       0.82804   0.87918   0.02045  -0.19595
C          C       0.59183   0.88762   0.99028  -0.19788
C          C       0.87653   0.87569   0.02825   0.04215
C          C       0.88033   0.92248   0.00658   0.03318
C          C       0.51106   0.26258   0.91999   0.03420
C          C       0.56152   0.25984   0.92645   0.03478
C          C       0.49519   0.94415   0.03242   0.03542
C          C       0.54374   0.89115   0.01800   0.03599
C          C       0.92858   0.92638   0.01342   0.06666
C          C       0.98053   0.88094   0.98079  -0.12909
C          C       0.92377   0.97828   0.04563  -0.12788
C          C       0.02414   0.88665   0.97089  -0.13661
C          C       0.96725   0.98423   0.03367  -0.13326
C          C       0.01881   0.93837   0.99083   0.10932
C          C       0.92253   0.82559   0.57714   0.06040
C          C       0.96237   0.82156   0.67375  -0.13006
C          C       0.92593   0.77639   0.50467  -0.12524
C          C       0.00349   0.77157   0.69769  -0.14171
C          C       0.96670   0.72614   0.53040  -0.13423
C          C       0.00641   0.72232   0.62874   0.10171
C          C       0.57042   0.30549   0.91969   0.06209
C          C       0.54028   0.35862   0.01317  -0.12191
C          C       0.61261   0.29470   0.81242  -0.13826
C          C       0.54985   0.39954   0.99293  -0.13885
C          C       0.62302   0.33518   0.79421  -0.13381
C          C       0.59079   0.38909   0.88083   0.10220
C          C       0.45963   0.31250   0.91262   0.06040
C          C       0.45527   0.35489   0.84223  -0.13286
C          C       0.41214   0.31882   0.97625  -0.12201
C          C       0.40669   0.40186   0.84071  -0.13843
C          C       0.36325   0.36479   0.96892  -0.13460
C          C       0.35938   0.40779   0.90231   0.09827
C          C       0.44139   0.95523   0.59221   0.05656
C          C       0.39603  -0.00011   0.54957  -0.12352
C          C       0.43258   0.92311   0.68082  -0.13161
C          C       0.34546   0.01104   0.59157  -0.13758
C          C       0.38235   0.93316   0.71895  -0.13116
C          C       0.33702   0.97762   0.67573   0.09626
C          C       0.54791   0.83983   0.54331   0.05922
C          C       0.51508   0.82290   0.46823  -0.12034
C          C       0.58754   0.80357   0.62799  -0.13767
C          C       0.51963   0.77405   0.48572  -0.13317
C          C       0.59261   0.75442   0.64417  -0.13082
C          C       0.55749   0.73914   0.57735   0.09578
C          C       0.06599   0.94078   0.96574  -0.13480
C          C       0.06949   0.98409   0.94307  -0.14186
C          C       0.11948   0.98143   0.91657   0.10123
C          C       0.12257   0.01971   0.84093  -0.14169
C          C       0.16677   0.94045   0.96362  -0.13223
C          C       0.17056   0.01560   0.80616  -0.13048
C          C       0.21457   0.93653   0.92996  -0.13703
C          C       0.21814   0.97323   0.84762   0.09471
C          C       0.27011   0.96465   0.81018  -0.14042
C          C       0.28355   0.98993   0.71472  -0.14440
C          C       0.59904   0.43215   0.84823  -0.13428
C          C       0.55972   0.48417   0.84862  -0.14120
C          C       0.56688   0.52742   0.81191   0.10194
C          C       0.52705   0.56968   0.74369  -0.14302
C          C       0.61244   0.52967   0.84482  -0.13448
C          C       0.53307   0.61102   0.70563  -0.13258
C          C       0.61798   0.57174   0.80980  -0.13514
C          C       0.57890   0.61310   0.73682   0.10036
C          C       0.58578   0.65653   0.70108  -0.13872
C          C       0.55606   0.69199   0.60552  -0.13768
C          C       0.30939   0.45702   0.89233  -0.13486
C          C       0.26226   0.46077   0.87264  -0.14146
C          C       0.21436   0.51112   0.85495   0.10155
C          C       0.17721   0.50983   0.75294  -0.14345
C          C       0.20448   0.56262   0.93405  -0.13407
C          C       0.13406   0.55768   0.72282  -0.13117
C          C       0.16073   0.61036   0.90676  -0.13482
C          C       0.12506   0.60932   0.79776   0.09679
C          C       0.08222   0.66101   0.76830  -0.13701
C          C       0.04767   0.66924   0.65559  -0.13892
C          C       0.64582   0.07619   0.48786   0.10217
C          C       0.59617   0.07822   0.48860   0.09811
C          C       0.59434   0.02932   0.50128   0.09904
C          C       0.64242   0.97871   0.50653   0.09874
C          C       0.69290   0.97698   0.51126   0.09679
C          C       0.69496   0.02463   0.49665   0.09945
C          C       0.55338   0.16835   0.46943   0.16139
C          C       0.60256   0.16664   0.47116   0.16060
C          C       0.54704   0.98776   0.51778   0.16301
C          C       0.78186   0.92986   0.53125   0.16604
C          C       0.59511   0.93664   0.51211   0.15952
C          C       0.78442   0.97617   0.50832   0.16182
C          C       0.83401   0.97218   0.50587  -0.19194
C          C       0.50691   0.21778   0.45668  -0.19130
C          C       0.60242   0.21479   0.46146  -0.19931
C          C       0.49843   0.99035   0.53865  -0.18873
C          C       0.82887   0.88254   0.55374  -0.19415
C          C       0.59184   0.88996   0.51533  -0.19841
C          C       0.87763   0.87879   0.55325   0.03870
C          C       0.88047   0.92603   0.53060   0.03497
C          C       0.50692   0.26497   0.44570   0.03922
C          C       0.55681   0.26341   0.44775   0.03653
C          C       0.49492   0.94514   0.55189   0.03590
C          C       0.54399   0.89236   0.53535   0.03592
C          C       0.92920   0.92885   0.52320   0.06562
C          C       0.97985   0.88294   0.47001  -0.12972
C          C       0.92595   0.97990   0.56125  -0.12694
C          C       0.02376   0.88758   0.45014  -0.13299
C          C       0.96965   0.98488   0.53869  -0.13148
C          C       0.01989   0.93870   0.48003   0.10672
C          C       0.91989   0.82280   0.05919   0.06236
C          C       0.95591   0.81957   0.17040  -0.13151
C          C       0.92477   0.77342   0.98093  -0.12392
C          C       0.99581   0.76980   0.19974  -0.13895
C          C       0.96437   0.72341   0.01198  -0.13506
C          C       0.00118   0.72008   0.12186   0.10033
C          C       0.56406   0.30958   0.43353   0.06245
C          C       0.52946   0.36431   0.51105  -0.12378
C          C       0.60967   0.29802   0.34152  -0.13632
C          C       0.53921   0.40526   0.49310  -0.13626
C          C       0.62031   0.33868   0.32767  -0.13677
C          C       0.58457   0.39365   0.39978   0.10336
C          C       0.45574   0.31320   0.42603   0.05894
C          C       0.45232   0.34917   0.32828  -0.12775
C          C       0.40811   0.32386   0.50325  -0.12607
C          C       0.40439   0.39534   0.31543  -0.13516
C          C       0.35966   0.36857   0.48406  -0.13674
C          C       0.35681   0.40588   0.39189   0.09849
C          C       0.44203   0.95539   0.08343   0.05884
C          C       0.39632   0.99794   0.03499  -0.12376
C          C       0.43427   0.92587   0.18558  -0.13079
C          C       0.34617   0.00900   0.08206  -0.13642
C          C       0.38448   0.93572   0.22889  -0.12899
C          C       0.33880   0.97755   0.17756   0.09424
C          C       0.54615   0.83985   0.03361   0.06076
C          C       0.51125   0.82450   0.96627  -0.11918
C          C       0.58597   0.80327   0.11697  -0.13723
C          C       0.51479   0.77640   0.98699  -0.13331
C          C       0.58970   0.75504   0.13775  -0.12972
C          C       0.55326   0.74091   0.07597   0.09901
C          C       0.06746   0.94009   0.45190  -0.13496
C          C       0.07211   0.98375   0.44342  -0.14212
C          C       0.12256   0.98002   0.41681   0.10138
C          C       0.12535   0.02120   0.35719  -0.14189
C          C       0.17031   0.93575   0.44993  -0.13387
C          C       0.17348   0.01692   0.32360  -0.13085
C          C       0.21823   0.93180   0.41810  -0.13292
C          C       0.22139   0.97147   0.35054   0.09429
C          C       0.27328   0.96287   0.31223  -0.14290
C          C       0.28576   0.98925   0.21855  -0.14277
C          C       0.59364   0.43637   0.36912  -0.13342
C          C       0.55471   0.48689   0.35293  -0.13912
C          C       0.56208   0.52983   0.31536   0.09900
C          C       0.52380   0.56963   0.23621  -0.14189
C          C       0.60599   0.53424   0.35676  -0.12998
C          C       0.52972   0.61075   0.19600  -0.13453
C          C       0.61159   0.57583   0.31789  -0.13192
C          C       0.57408   0.61483   0.23477   0.09820
C          C       0.58132   0.65790   0.19783  -0.13765
C          C       0.55081   0.69455   0.10640  -0.13931
C          C       0.30734   0.45447   0.37283  -0.13190
C          C       0.25929   0.45968   0.36526  -0.14584
C          C       0.21158   0.51001   0.34544   0.10363
C          C       0.17377   0.50837   0.24732  -0.14611
C          C       0.20211   0.56167   0.42065  -0.13714
C          C       0.13020   0.55591   0.21741  -0.13267
C          C       0.15805   0.60922   0.39306  -0.13195
C          C       0.12159   0.60774   0.28813   0.09506
C          C       0.07843   0.65924   0.25815  -0.13649
C          C       0.04240   0.66713   0.15043  -0.13911
N          N       0.55310   0.11939   0.92361  -0.25799
N          N       0.65166   0.11426   0.93153  -0.25842
N          N       0.54840   0.02935   0.95590  -0.25504
N          N       0.73618   0.92623   0.98483  -0.25784
N          N       0.64319   0.92885   0.96427  -0.25754
N          N       0.74228   0.01799   0.94114  -0.25811
N          N       0.55085   0.12364   0.47849  -0.25543
N          N       0.64857   0.12022   0.48070  -0.26003
N          N       0.54734   0.03367   0.50849  -0.25310
N          N       0.73577   0.93062   0.53051  -0.25980
N          N       0.64270   0.93271   0.50767  -0.25849
N          N       0.74053   0.02349   0.49146  -0.25555

