data_crystal

_audit_creation_method 'AiiDA-DDEC plugin'

_cell_length_a         7.82431
_cell_length_b        31.24984
_cell_length_c        54.14946

_cell_angle_alpha     89.57330
_cell_angle_beta     91.64551
_cell_angle_gamma     84.37397

_symmetry_space_group_name_Hall 'P 1'
_symmetry_space_group_name_H-M  'P 1'

loop_
_symmetry_equiv_pos_as_xyz
 'x,y,z'

loop_
_atom_site_label
_atom_site_type_symbol
_atom_site_fract_x
_atom_site_fract_y
_atom_site_fract_z
_atom_site_charge
H          H       0.61909   0.56872   0.07625   0.12685
H          H       0.09780   0.55653   0.19870   0.13094
H          H       0.57244   0.52067   0.14790   0.11158
H          H       0.13415   0.52261   0.26958   0.12916
H          H       0.56261   0.43857   0.09180   0.11259
H          H       0.11408   0.43239   0.21671   0.12335
H          H       0.62329   0.56940   0.03068   0.13933
H          H       0.07555   0.55574   0.15313   0.11503
H          H       0.57371   0.58694   0.17243   0.12516
H          H       0.14913   0.59166   0.29152   0.13061
H          H       0.54677   0.36936   0.11383   0.13748
H          H       0.12029   0.36407   0.24043   0.12721
H          H       0.78957   0.58412   0.93916   0.14367
H          H       0.86709   0.70829   0.23150   0.14295
H          H       0.39996   0.71099   0.34784   0.14760
H          H       0.61418   0.06724   0.57687   0.12741
H          H       0.09063   0.05874   0.69802   0.13140
H          H       0.57096   0.02021   0.64807   0.11268
H          H       0.12389   0.02643   0.76932   0.12772
H          H       0.55764   0.93758   0.59296   0.11421
H          H       0.09624   0.93595   0.71678   0.12224
H          H       0.61339   0.06813   0.53131   0.13501
H          H       0.07234   0.05702   0.65241   0.11500
H          H       0.57018   0.08694   0.67216   0.12450
H          H       0.14325   0.09608   0.79051   0.13093
H          H       0.53938   0.86924   0.61591   0.13921
H          H       0.09956   0.86738   0.74025   0.12782
H          H       0.76697   0.08346   0.43935   0.14483
H          H       0.83722   0.20793   0.73184   0.14350
H          H       0.40281   0.21412   0.84570   0.14782
H          H       0.87527   0.44024   0.07753   0.12554
H          H       0.45031   0.44090   0.19786   0.13228
H          H       0.90885   0.47765   0.14870   0.11596
H          H       0.47263   0.47861   0.26964   0.12717
H          H       0.91768   0.57083   0.09680   0.11788
H          H       0.46922   0.56412   0.21441   0.12018
H          H       0.87444   0.44042   0.03201   0.13175
H          H       0.42580   0.44027   0.15247   0.11319
H          H       0.89378   0.40843   0.17060   0.12910
H          H       0.47500   0.41064   0.29364   0.13175
H          H       0.91945   0.63698   0.12165   0.13485
H          H       0.48118   0.63355   0.23610   0.12486
H          H       0.71322   0.42473   0.93997   0.14450
H          H       0.61703   0.29116   0.22597   0.14709
H          H       0.21994   0.28954   0.35221   0.14753
H          H       0.86909   0.93869   0.57761   0.12643
H          H       0.43706   0.94197   0.69847   0.13184
H          H       0.90510   0.97789   0.64939   0.11489
H          H       0.45994   0.98033   0.76953   0.12944
H          H       0.91535   0.06970   0.59670   0.11822
H          H       0.45972   0.06504   0.71344   0.12085
H          H       0.86403   0.93905   0.53209   0.13353
H          H       0.41595   0.94032   0.65306   0.11233
H          H       0.88640   0.90964   0.67224   0.12796
H          H       0.45997   0.91218   0.79329   0.13148
H          H       0.91438   0.13664   0.62093   0.13662
H          H       0.47612   0.13512   0.73440   0.12446
H          H       0.71541   0.92280   0.44035   0.14463
H          H       0.58394   0.78889   0.72559   0.14623
H          H       0.23237   0.79217   0.85267   0.14790
H          H       0.37513   0.43273   0.92367   0.12687
H          H       0.90448   0.44384   0.80221   0.13093
H          H       0.42256   0.48300   0.85264   0.11118
H          H       0.87408   0.47456   0.73209   0.12912
H          H       0.43939   0.56287   0.90916   0.11339
H          H       0.89111   0.56602   0.78440   0.12366
H          H       0.37447   0.43092   0.96926   0.14013
H          H       0.92512   0.44539   0.84791   0.11456
H          H       0.42684   0.41702   0.82794   0.12291
H          H       0.85660   0.40477   0.71086   0.12955
H          H       0.46248   0.63185   0.88719   0.14093
H          H       0.89029   0.63448   0.76079   0.12831
H          H       0.21979   0.41638   0.06150   0.14536
H          H       0.18551   0.29448   0.76728   0.14238
H          H       0.57361   0.28741   0.65562   0.14727
H          H       0.37097   0.93231   0.42403   0.12726
H          H       0.90566   0.94431   0.30254   0.13065
H          H       0.41878   0.98120   0.35339   0.11085
H          H       0.88752   0.97571   0.23276   0.12887
H          H       0.42504   0.06166   0.40909   0.11417
H          H       0.88729   0.06858   0.28493   0.12333
H          H       0.37066   0.93115   0.46964   0.13568
H          H       0.91935   0.94468   0.34825   0.11622
H          H       0.43196   0.91415   0.32942   0.12594
H          H       0.87833   0.90530   0.21188   0.13260
H          H       0.44965   0.13014   0.38666   0.13693
H          H       0.88398   0.13669   0.26103   0.12757
H          H       0.20884   0.91672   0.56155   0.14468
H          H       0.19878   0.79184   0.26885   0.14325
H          H       0.57379   0.78727   0.15713   0.14706
H          H       0.12358   0.56159   0.92364   0.12527
H          H       0.55160   0.55937   0.80226   0.13138
H          H       0.08870   0.52620   0.85219   0.11518
H          H       0.54139   0.52019   0.73005   0.12847
H          H       0.07864   0.43126   0.90323   0.11845
H          H       0.52241   0.43746   0.78627   0.12153
H          H       0.12688   0.56025   0.96917   0.13254
H          H       0.57522   0.56087   0.84776   0.11400
H          H       0.11077   0.59509   0.83034   0.12957
H          H       0.54506   0.58822   0.70615   0.13070
H          H       0.08245   0.36512   0.87834   0.13615
H          H       0.50790   0.36735   0.76526   0.12240
H          H       0.27855   0.57674   0.06037   0.14370
H          H       0.36589   0.71062   0.77359   0.14803
H          H       0.82491   0.71107   0.65020   0.14720
H          H       0.10821   0.05997   0.42336   0.12520
H          H       0.55203   0.05967   0.30247   0.13207
H          H       0.08244   0.02309   0.35163   0.11513
H          H       0.54661   0.02036   0.23019   0.12836
H          H       0.07150   0.92952   0.40347   0.11921
H          H       0.53201   0.93792   0.28613   0.12280
H          H       0.11230   0.05942   0.46894   0.13252
H          H       0.56881   0.06009   0.34795   0.11307
H          H       0.10604   0.09152   0.32925   0.12815
H          H       0.54697   0.08811   0.20603   0.13202
H          H       0.08375   0.86234   0.37928   0.13510
H          H       0.52496   0.86726   0.26553   0.12300
H          H       0.27501   0.07671   0.56031   0.14469
H          H       0.39028   0.20848   0.27430   0.14657
H          H       0.79110   0.20973   0.14835   0.14760
C          C       0.67706   0.54078   0.06665  -0.17337
C          C       0.17105   0.53118   0.18868  -0.16945
C          C       0.64932   0.54584   0.14211  -0.15429
C          C       0.21065   0.54679   0.26232  -0.16421
C          C       0.63451   0.43206   0.10910  -0.17173
C          C       0.19425   0.42753   0.23341  -0.16541
C          C       0.67935   0.54126   0.04097  -0.15565
C          C       0.15803   0.53082   0.16294  -0.14433
C          C       0.65078   0.58296   0.15606  -0.13473
C          C       0.21939   0.58546   0.27468  -0.14310
C          C       0.62656   0.39300   0.12131  -0.13514
C          C       0.19748   0.38916   0.24673  -0.14530
C          C       0.71953   0.46864   0.98734   0.43160
C          C       0.22676   0.46053   0.10887   0.42872
C          C       0.67017   0.69501   0.15257   0.43377
C          C       0.26947   0.69765   0.26650   0.43409
C          C       0.66717   0.34159   0.18150   0.43167
C          C       0.26662   0.34018   0.30752   0.42965
C          C       0.73704   0.48279   0.96133  -0.04204
C          C       0.23825   0.47485   0.08279  -0.05546
C          C       0.68554   0.72606   0.17307  -0.04944
C          C       0.28248   0.72986   0.28654  -0.05514
C          C       0.68242   0.29453   0.18713  -0.05291
C          C       0.28065   0.29309   0.31317  -0.05365
C          C       0.74459   0.54111   0.12052   0.16162
C          C       0.29954   0.53879   0.24037   0.17490
C          C       0.74696   0.61590   0.14857   0.16944
C          C       0.31590   0.61691   0.26518   0.16717
C          C       0.77224   0.54998   0.93929  -0.06879
C          C       0.80106   0.72500   0.21572  -0.06603
C          C       0.35886   0.72842   0.33088  -0.07241
C          C       0.67089   0.03932   0.56713  -0.17597
C          C       0.16350   0.03301   0.68825  -0.16808
C          C       0.64702   0.04541   0.64211  -0.15492
C          C       0.20166   0.05008   0.76178  -0.16367
C          C       0.62975   0.93147   0.61029  -0.17426
C          C       0.17667   0.93058   0.73342  -0.16750
C          C       0.67025   0.03990   0.54144  -0.15292
C          C       0.15277   0.03211   0.66253  -0.14681
C          C       0.64722   0.08282   0.65580  -0.13180
C          C       0.21225   0.08910   0.77364  -0.14244
C          C       0.62034   0.89296   0.62301  -0.13454
C          C       0.17832   0.89212   0.74658  -0.14368
C          C       0.71378   0.96708   0.48757   0.43243
C          C       0.21978   0.96088   0.60893   0.42840
C          C       0.66717   0.19505   0.65164   0.43278
C          C       0.26252   0.20058   0.76463   0.43084
C          C       0.65232   0.84094   0.68263   0.43495
C          C       0.25660   0.84243   0.80732   0.43204
C          C       0.72977   0.98139   0.46159  -0.04880
C          C       0.23105   0.97510   0.58283  -0.05421
C          C       0.67761   0.22615   0.67222  -0.05087
C          C       0.27607   0.23282   0.78471  -0.05275
C          C       0.67365   0.79383   0.68796  -0.05491
C          C       0.27406   0.79542   0.81302  -0.05178
C          C       0.74281   0.04036   0.62061   0.16454
C          C       0.28979   0.04119   0.73987   0.17800
C          C       0.74236   0.11580   0.64809   0.16885
C          C       0.30954   0.11988   0.76362   0.16331
C          C       0.75497   0.04906   0.43956  -0.06941
C          C       0.77818   0.22485   0.71563  -0.06619
C          C       0.35819   0.23146   0.82885  -0.07215
C          C       0.81833   0.46840   0.06732  -0.17422
C          C       0.36725   0.46604   0.18826  -0.17158
C          C       0.82837   0.45422   0.14113  -0.15286
C          C       0.39454   0.45370   0.26332  -0.16622
C          C       0.84189   0.57425   0.11329  -0.16669
C          C       0.39733   0.57042   0.23110  -0.16473
C          C       0.81825   0.46847   0.04167  -0.15118
C          C       0.35304   0.46545   0.16259  -0.14672
C          C       0.81979   0.41535   0.15350  -0.13280
C          C       0.39616   0.41553   0.27682  -0.14581
C          C       0.84268   0.61156   0.12717  -0.13206
C          C       0.40474   0.60933   0.24332  -0.14311
C          C       0.77746   0.54102   0.98721   0.43181
C          C       0.25531   0.53470   0.10826   0.42765
C          C       0.74661   0.30408   0.14536   0.43341
C          C       0.33921   0.30261   0.27132   0.43225
C          C       0.80093   0.65763   0.18720   0.43398
C          C       0.36518   0.66092   0.30317   0.43041
C          C       0.76042   0.52669   0.96115  -0.04562
C          C       0.25246   0.51917   0.08243  -0.05576
C          C       0.72983   0.27210   0.16558  -0.05327
C          C       0.32574   0.27063   0.29159  -0.05031
C          C       0.76517   0.70406   0.19371  -0.05203
C          C       0.33836   0.70777   0.30840  -0.04824
C          C       0.73467   0.46309   0.11888   0.16244
C          C       0.29335   0.46025   0.24147   0.17634
C          C       0.71846   0.38476   0.14366   0.16910
C          C       0.29824   0.38307   0.26849   0.16186
C          C       0.72976   0.45889   0.93978  -0.06500
C          C       0.65781   0.27380   0.20948  -0.06282
C          C       0.25502   0.27221   0.33545  -0.07346
C          C       0.81127   0.96691   0.56753  -0.17528
C          C       0.35643   0.96718   0.68855  -0.16964
C          C       0.82414   0.95432   0.64210  -0.15344
C          C       0.38004   0.95578   0.76323  -0.16852
C          C       0.83914   0.07352   0.61314  -0.17192
C          C       0.38893   0.07213   0.73014  -0.16926
C          C       0.80874   0.96706   0.54186  -0.15636
C          C       0.34417   0.96604   0.66289  -0.14592
C          C       0.81353   0.91606   0.65499  -0.13148
C          C       0.38030   0.91750   0.77657  -0.14461
C          C       0.83840   0.11122   0.62671  -0.13436
C          C       0.39820   0.11140   0.74185  -0.14230
C          C       0.75939   0.04026   0.48742   0.43296
C          C       0.25485   0.03477   0.60824   0.42753
C          C       0.75827   0.80506   0.64730   0.43430
C          C       0.31536   0.80485   0.77063   0.43482
C          C       0.78524   0.15765   0.68699   0.43505
C          C       0.36381   0.16389   0.80110   0.42621
C          C       0.74590   0.02563   0.46140  -0.04516
C          C       0.24785   0.01930   0.58242  -0.05485
C          C       0.73848   0.77237   0.66699  -0.05050
C          C       0.30959   0.77287   0.79114  -0.04975
C          C       0.74932   0.20407   0.69334  -0.05200
C          C       0.33610   0.21074   0.80644  -0.05011
C          C       0.73178   0.96246   0.61966   0.16588
C          C       0.27832   0.96277   0.74147   0.17688
C          C       0.71203   0.88531   0.64541   0.17022
C          C       0.28022   0.88548   0.76821   0.16603
C          C       0.72667   0.95723   0.44008  -0.06440
C          C       0.63902   0.77233   0.70963  -0.06326
C          C       0.25953   0.77475   0.83567  -0.07515
C          C       0.31898   0.46052   0.93357  -0.17551
C          C       0.83041   0.46915   0.81216  -0.16836
C          C       0.34678   0.45751   0.85824  -0.15536
C          C       0.79376   0.45114   0.73927  -0.16325
C          C       0.36785   0.56988   0.89187  -0.17147
C          C       0.81362   0.57114   0.76746  -0.16776
C          C       0.31857   0.45938   0.95926  -0.15744
C          C       0.84251   0.46997   0.83787  -0.14520
C          C       0.34857   0.42044   0.84420  -0.13022
C          C       0.78392   0.41212   0.72737  -0.13970
C          C       0.37988   0.60883   0.87969  -0.13973
C          C       0.81348   0.60948   0.75422  -0.14364
C          C       0.28097   0.53197   0.01304   0.43184
C          C       0.77672   0.54030   0.89158   0.42851
C          C       0.32200   0.30719   0.84864   0.43020
C          C       0.74413   0.30142   0.73542   0.43098
C          C       0.33022   0.66037   0.81889   0.43057
C          C       0.76803   0.65923   0.69407   0.42880
C          C       0.26297   0.51817   0.03912  -0.04203
C          C       0.76376   0.52615   0.91770  -0.05466
C          C       0.31672   0.27587   0.82810  -0.05087
C          C       0.72879   0.26906   0.71543  -0.05097
C          C       0.31761   0.70734   0.81310  -0.05605
C          C       0.74242   0.70623   0.68823  -0.05452
C          C       0.25112   0.46174   0.87979   0.16517
C          C       0.70098   0.46042   0.76074   0.17586
C          C       0.25495   0.38690   0.85157   0.16292
C          C       0.68275   0.38178   0.73695   0.16399
C          C       0.23336   0.45072   0.06130  -0.07036
C          C       0.23501   0.27736   0.78398  -0.06455
C          C       0.62832   0.27020   0.67200  -0.07014
C          C       0.31284   0.96001   0.43381  -0.17647
C          C       0.83055   0.96947   0.31245  -0.16840
C          C       0.34492   0.95538   0.35908  -0.15601
C          C       0.80788   0.95203   0.23981  -0.16289
C          C       0.35532   0.06829   0.39162  -0.17258
C          C       0.81158   0.07301   0.26780  -0.16875
C          C       0.31276   0.95926   0.45949  -0.15227
C          C       0.83866   0.96961   0.33818  -0.14607
C          C       0.35170   0.91780   0.34546  -0.13319
C          C       0.80273   0.91262   0.22813  -0.14381
C          C       0.36823   0.10687   0.37915  -0.13454
C          C       0.80999   0.11121   0.25441  -0.14371
C          C       0.27233   0.03201   0.51301   0.43060
C          C       0.76361   0.03949   0.39206   0.42828
C          C       0.32483   0.80438   0.35054   0.43115
C          C       0.77090   0.80155   0.23561   0.43136
C          C       0.33456   0.15787   0.31862   0.43497
C          C       0.75035   0.15954   0.19330   0.42704
C          C       0.25496   0.01827   0.53910  -0.04270
C          C       0.75106   0.02494   0.41805  -0.05653
C          C       0.32072   0.77292   0.33001  -0.04942
C          C       0.75012   0.76915   0.21578  -0.05184
C          C       0.32321   0.20494   0.31307  -0.05492
C          C       0.73197   0.20653   0.18743  -0.05356
C          C       0.24563   0.95976   0.38025   0.16401
C          C       0.71126   0.96125   0.26092   0.17542
C          C       0.25927   0.88413   0.35292   0.16887
C          C       0.70255   0.88192   0.23755   0.16411
C          C       0.22400   0.95098   0.56136  -0.07025
C          C       0.24500   0.77449   0.28563  -0.06209
C          C       0.63464   0.77005   0.17311  -0.07138
C          C       0.18049   0.53315   0.93359  -0.17433
C          C       0.63401   0.53439   0.81211  -0.16693
C          C       0.17143   0.54909   0.85980  -0.15011
C          C       0.61822   0.54509   0.73673  -0.17011
C          C       0.15506   0.42822   0.88679  -0.17039
C          C       0.59771   0.42997   0.77001  -0.16453
C          C       0.18199   0.53243   0.95922  -0.15528
C          C       0.64761   0.53545   0.83777  -0.14718
C          C       0.18384   0.58779   0.84747  -0.13553
C          C       0.62018   0.58320   0.72331  -0.14146
C          C       0.15744   0.39090   0.87285  -0.13664
C          C       0.58932   0.39069   0.75825  -0.14202
C          C       0.22818   0.45926   0.01353   0.43039
C          C       0.73718   0.46672   0.89213   0.42883
C          C       0.27084   0.69851   0.85553   0.42598
C          C       0.65890   0.69550   0.72899   0.43093
C          C       0.22740   0.34489   0.81230   0.42982
C          C       0.62116   0.33727   0.69989   0.42793
C          C       0.24378   0.47405   0.03946  -0.04711
C          C       0.74401   0.48206   0.91798  -0.05775
C          C       0.28181   0.72996   0.83495  -0.05155
C          C       0.67674   0.72781   0.70909  -0.05090
C          C       0.25826   0.29819   0.80640  -0.05213
C          C       0.65598   0.29075   0.69429  -0.05303
C          C       0.26444   0.53957   0.88202   0.16190
C          C       0.71444   0.53871   0.75902   0.17844
C          C       0.28846   0.61769   0.85734   0.16590
C          C       0.71669   0.61554   0.73212   0.15854
C          C       0.26590   0.54237   0.06061  -0.06400
C          C       0.33382   0.72801   0.79044  -0.06380
C          C       0.77480   0.72777   0.66643  -0.07322
C          C       0.16766   0.03199   0.43348  -0.17317
C          C       0.63365   0.03456   0.31232  -0.16969
C          C       0.16340   0.04638   0.35924  -0.15442
C          C       0.62130   0.04570   0.23686  -0.17040
C          C       0.15092   0.92606   0.38734  -0.17181
C          C       0.60934   0.93042   0.27007  -0.16622
C          C       0.16959   0.03169   0.45912  -0.15420
C          C       0.64330   0.03499   0.33800  -0.14602
C          C       0.17696   0.08474   0.34662  -0.13262
C          C       0.62118   0.08375   0.22330  -0.14474
C          C       0.15804   0.88828   0.37382  -0.13359
C          C       0.60560   0.89080   0.25854  -0.13922
C          C       0.21893   0.95936   0.51357   0.43198
C          C       0.73347   0.96538   0.39232   0.42867
C          C       0.25650   0.19551   0.35472   0.43356
C          C       0.67552   0.19718   0.22943   0.43005
C          C       0.23920   0.84205   0.31374   0.43718
C          C       0.63522   0.83724   0.20083   0.42852
C          C       0.23450   0.97422   0.53949  -0.04684
C          C       0.73787   0.98055   0.41825  -0.05310
C          C       0.27682   0.22739   0.33464  -0.05158
C          C       0.68582   0.22901   0.20896  -0.05174
C          C       0.26717   0.79526   0.30808  -0.05475
C          C       0.66925   0.79072   0.19513  -0.05196
C          C       0.25347   0.03767   0.38179   0.16415
C          C       0.71647   0.03987   0.25927   0.17749
C          C       0.27967   0.11500   0.35652   0.17040
C          C       0.71483   0.11668   0.23213   0.16205
C          C       0.26055   0.04244   0.56057  -0.06622
C          C       0.35039   0.22579   0.29086  -0.06322
C          C       0.75525   0.22727   0.16502  -0.07265
C          C       0.74614   0.50429   0.08024   0.16649
C          C       0.74854   0.50493   0.02834   0.15955
C          C       0.74131   0.00285   0.58061   0.16978
C          C       0.73810   0.00361   0.52864   0.16088
C          C       0.25073   0.49748   0.92033   0.16942
C          C       0.25167   0.49557   0.97221   0.16195
C          C       0.24093   0.99644   0.42042   0.16837
C          C       0.24266   0.99533   0.47224   0.16211
C          C       0.27644   0.49891   0.20159   0.16989
C          C       0.24915   0.49795   0.14982   0.16300
C          C       0.26625   0.00065   0.70148   0.16848
C          C       0.24323   0.99864   0.64979   0.16159
C          C       0.72496   0.50115   0.79908   0.16929
C          C       0.75068   0.50304   0.85072   0.16339
C          C       0.72712   0.00178   0.29929   0.16796
C          C       0.74491   0.00240   0.35101   0.16195
N          N       0.74254   0.65467   0.16230  -0.22214
N          N       0.32043   0.65688   0.27767  -0.21773
N          N       0.73649   0.15471   0.66168  -0.21987
N          N       0.31596   0.16001   0.77576  -0.20474
N          N       0.71000   0.34508   0.15636  -0.21618
N          N       0.30173   0.34359   0.28199  -0.20260
N          N       0.70561   0.84548   0.65806  -0.22168
N          N       0.28347   0.84588   0.78153  -0.21669
N          N       0.26376   0.34795   0.83798  -0.20446
N          N       0.67734   0.34154   0.72483  -0.20711
N          N       0.27096   0.84508   0.33953  -0.21747
N          N       0.69970   0.84161   0.22537  -0.20772
N          N       0.29993   0.65721   0.84457  -0.20314
N          N       0.71407   0.65511   0.71879  -0.20372
N          N       0.29179   0.15445   0.34375  -0.21818
N          N       0.71197   0.15616   0.21872  -0.20260
N          N       0.74200   0.50305   0.10637  -0.13545
N          N       0.74809   0.50488   0.00210  -0.21653
N          N       0.74138   0.00193   0.60676  -0.13613
N          N       0.73590   0.00372   0.50239  -0.21392
N          N       0.25324   0.49947   0.89422  -0.13825
N          N       0.25445   0.49538   0.99844  -0.21425
N          N       0.24218   0.99796   0.39431  -0.13757
N          N       0.24530   0.99541   0.49846  -0.21685
N          N       0.29089   0.49926   0.22782  -0.14252
N          N       0.24048   0.49786   0.12349  -0.21945
N          N       0.27851   0.00152   0.72768  -0.14239
N          N       0.23595   0.99819   0.62348  -0.21769
N          N       0.71138   0.50020   0.77289  -0.14465
N          N       0.75800   0.50322   0.87703  -0.21750
N          N       0.71681   0.00119   0.27308  -0.14168
N          N       0.74991   0.00235   0.37732  -0.21793
O          O       0.81579   0.57558   0.99486  -0.38988
O          O       0.26800   0.57130   0.11528  -0.39396
O          O       0.86566   0.62764   0.20001  -0.40358
O          O       0.41515   0.63171   0.31744  -0.39427
O          O       0.78348   0.29817   0.12386  -0.39077
O          O       0.37404   0.29628   0.24973  -0.40963
O          O       0.79108   0.07546   0.49492  -0.38970
O          O       0.27454   0.07105   0.61526  -0.39417
O          O       0.84273   0.12755   0.70025  -0.40446
O          O       0.41592   0.13430   0.81502  -0.39398
O          O       0.80814   0.80012   0.62631  -0.39150
O          O       0.34121   0.79851   0.74875  -0.40699
O          O       0.68353   0.43384   0.99495  -0.39324
O          O       0.20799   0.42444   0.11645  -0.39818
O          O       0.62649   0.37173   0.19509  -0.40008
O          O       0.23276   0.37023   0.32132  -0.39417
O          O       0.60947   0.70143   0.13174  -0.39138
O          O       0.22399   0.70370   0.24489  -0.40728
O          O       0.68319   0.93175   0.49504  -0.39333
O          O       0.19980   0.92489   0.61655  -0.39781
O          O       0.60087   0.87021   0.69619  -0.40125
O          O       0.22534   0.87238   0.82131  -0.39313
O          O       0.61108   0.20140   0.63056  -0.39075
O          O       0.21529   0.20632   0.74307  -0.40933
O          O       0.19248   0.42428   0.00623  -0.39016
O          O       0.71655   0.43064   0.88490  -0.39540
O          O       0.18209   0.37506   0.79837  -0.40535
O          O       0.55828   0.36621   0.68628  -0.39639
O          O       0.24215   0.70550   0.87722  -0.38821
O          O       0.60932   0.70134   0.75000  -0.41062
O          O       0.18384   0.92432   0.50627  -0.39100
O          O       0.71749   0.92910   0.38496  -0.39547
O          O       0.19927   0.87238   0.29969  -0.40661
O          O       0.56722   0.86609   0.18757  -0.39693
O          O       0.21732   0.20159   0.37612  -0.38983
O          O       0.64443   0.20367   0.25114  -0.40815
O          O       0.31609   0.56672   0.00521  -0.39362
O          O       0.80028   0.57589   0.88372  -0.39918
O          O       0.35894   0.63004   0.80499  -0.40022
O          O       0.82426   0.62979   0.68108  -0.39433
O          O       0.36648   0.30067   0.87019  -0.39012
O          O       0.80216   0.29618   0.75650  -0.40891
O          O       0.30732   0.06674   0.50514  -0.39262
O          O       0.78363   0.07558   0.38463  -0.39822
O          O       0.37224   0.12772   0.30493  -0.40189
O          O       0.79091   0.12952   0.17976  -0.39303
O          O       0.36520   0.79817   0.37227  -0.38972
O          O       0.83527   0.79631   0.25633  -0.40936

