data_crystal

_audit_creation_method 'AiiDA-DDEC plugin'

_cell_length_a         7.14637
_cell_length_b        36.20766
_cell_length_c        63.49435

_cell_angle_alpha     90.33596
_cell_angle_beta     89.74865
_cell_angle_gamma     92.27012

_symmetry_space_group_name_Hall 'P 1'
_symmetry_space_group_name_H-M  'P 1'

loop_
_symmetry_equiv_pos_as_xyz
 'x,y,z'

loop_
_atom_site_label
_atom_site_type_symbol
_atom_site_fract_x
_atom_site_fract_y
_atom_site_fract_z
_atom_site_charge
H          H       0.91646   0.60049   0.88910   0.11631
H          H       0.51490   0.39825   0.22260   0.11468
H          H       0.80126   0.44037   0.94032   0.11088
H          H       0.61201   0.54733   0.17353   0.11473
H          H       0.93653   0.44944   0.84286   0.10959
H          H       0.54013   0.54380   0.27185   0.11440
H          H       0.89457   0.65774   0.86820   0.13160
H          H       0.50943   0.33840   0.24116   0.11993
H          H       0.80738   0.43991   0.97845   0.13832
H          H       0.64729   0.54840   0.13516   0.11738
H          H       0.90603   0.39098   0.82235   0.12596
H          H       0.53932   0.60299   0.29149   0.13034
H          H       0.75000   0.55880   0.91036   0.11017
H          H       0.73089   0.43691   0.20318   0.10830
H          H       0.57897   0.77697   0.83676   0.14696
H          H       0.79616   0.21055   0.27142   0.14496
H          H       0.74204   0.42755   0.05762   0.14174
H          H       0.92401   0.09968   0.38875   0.11587
H          H       0.53169   0.89876   0.72215   0.11431
H          H       0.77081   0.93795   0.43950   0.11058
H          H       0.61660   0.04722   0.67329   0.11509
H          H       0.93935   0.94788   0.34194   0.11172
H          H       0.55987   0.04358   0.77265   0.11413
H          H       0.90147   0.15723   0.36821   0.13256
H          H       0.52201   0.83877   0.74039   0.11881
H          H       0.78027   0.93698   0.47760   0.13866
H          H       0.64670   0.04753   0.63494   0.11693
H          H       0.90244   0.88932   0.32159   0.12631
H          H       0.55747   0.10238   0.79250   0.13105
H          H       0.75276   0.05755   0.41000   0.10985
H          H       0.74335   0.93736   0.70332   0.10799
H          H       0.60333   0.27850   0.33779   0.14707
H          H       0.81677   0.71086   0.77170   0.14460
H          H       0.77377   0.92545   0.55732   0.14129
H          H       0.57663   0.40165   0.89105   0.11647
H          H       0.88060   0.59585   0.22343   0.11215
H          H       0.73110   0.55816   0.94139   0.10977
H          H       0.92166   0.44756   0.17590   0.11819
H          H       0.57316   0.54153   0.84333   0.10314
H          H       0.87924   0.44583   0.27035   0.11530
H          H       0.55401   0.34284   0.87088   0.13362
H          H       0.87247   0.65527   0.24263   0.12771
H          H       0.73670   0.55753   0.97959   0.13770
H          H       0.94454   0.44723   0.13722   0.11982
H          H       0.55713   0.59843   0.82224   0.12121
H          H       0.86910   0.38599   0.28923   0.13068
H          H       0.77083   0.43980   0.91057   0.10934
H          H       0.73942   0.55570   0.20405   0.10952
H          H       0.83359   0.21654   0.83929   0.14658
H          H       0.59369   0.78020   0.27356   0.15123
H          H       0.84110   0.56713   0.05820   0.14057
H          H       0.57544   0.90194   0.39030   0.11825
H          H       0.87660   0.09784   0.72300   0.11220
H          H       0.77614   0.05705   0.44088   0.11132
H          H       0.92806   0.94764   0.67570   0.11739
H          H       0.57358   0.04184   0.34319   0.10247
H          H       0.88482   0.94572   0.77113   0.11552
H          H       0.54589   0.84306   0.37029   0.13429
H          H       0.86614   0.15683   0.74244   0.12721
H          H       0.77944   0.05595   0.47904   0.13866
H          H       0.94528   0.94653   0.63709   0.11944
H          H       0.55536   0.09903   0.32254   0.12143
H          H       0.86923   0.88572   0.78976   0.13331
H          H       0.78293   0.93871   0.40953   0.10963
H          H       0.74552   0.05613   0.70399   0.10996
H          H       0.80123   0.71469   0.33963   0.14633
H          H       0.57926   0.28016   0.77485   0.15166
H          H       0.81749   0.06566   0.55751   0.14140
H          H       0.14810   0.39798   0.10761   0.11614
H          H       0.53026   0.59898   0.77501   0.11413
H          H       0.26953   0.55978   0.05711   0.11079
H          H       0.43822   0.45007   0.82344   0.11547
H          H       0.11769   0.54969   0.15458   0.11123
H          H       0.49564   0.45553   0.72434   0.11348
H          H       0.17294   0.34058   0.12824   0.13208
H          H       0.54115   0.65891   0.75653   0.11961
H          H       0.25963   0.56009   0.01895   0.13890
H          H       0.40902   0.44921   0.86188   0.11834
H          H       0.14806   0.60790   0.17537   0.12715
H          H       0.50445   0.39668   0.70455   0.13046
H          H       0.31044   0.44086   0.08691   0.10884
H          H       0.31384   0.56049   0.79414   0.10878
H          H       0.48650   0.22179   0.16011   0.14640
H          H       0.26484   0.78753   0.72621   0.14472
H          H       0.30611   0.57120   0.93960   0.14165
H          H       0.14020   0.89698   0.60846   0.11681
H          H       0.52105   0.10089   0.27493   0.11502
H          H       0.22961   0.05672   0.55729   0.11110
H          H       0.43738   0.95063   0.32313   0.11614
H          H       0.12455   0.04871   0.65504   0.11168
H          H       0.50578   0.95526   0.22537   0.11414
H          H       0.16522   0.83993   0.62935   0.13117
H          H       0.52992   0.16037   0.25603   0.11874
H          H       0.22664   0.05734   0.51906   0.14063
H          H       0.41177   0.94939   0.36159   0.11727
H          H       0.15922   0.10692   0.67567   0.12718
H          H       0.51003   0.89625   0.20554   0.13342
H          H       0.30402   0.93936   0.58697   0.10989
H          H       0.31342   0.06145   0.29406   0.10912
H          H       0.46199   0.71971   0.65994   0.14663
H          H       0.23338   0.28665   0.22479   0.14536
H          H       0.32576   0.07022   0.43989   0.14044
H          H       0.48711   0.59723   0.10723   0.11608
H          H       0.18427   0.40014   0.77402   0.11258
H          H       0.31347   0.44138   0.05618   0.11008
H          H       0.12684   0.54977   0.82161   0.11813
H          H       0.48001   0.45741   0.15422   0.10216
H          H       0.16677   0.55254   0.72683   0.11597
H          H       0.51041   0.65571   0.12766   0.13289
H          H       0.20151   0.34117   0.75466   0.12795
H          H       0.30649   0.44178   0.01802   0.13782
H          H       0.10995   0.55018   0.86025   0.11981
H          H       0.49907   0.40039   0.17503   0.12105
H          H       0.18298   0.61246   0.70803   0.13016
H          H       0.28733   0.55981   0.08719   0.10930
H          H       0.30812   0.44171   0.79294   0.11000
H          H       0.23403   0.78258   0.15774   0.14673
H          H       0.48537   0.21827   0.72300   0.15204
H          H       0.22277   0.43140   0.93942   0.14095
H          H       0.48116   0.09638   0.60652   0.11528
H          H       0.15839   0.90261   0.27299   0.11240
H          H       0.36039   0.94157   0.55617   0.11174
H          H       0.13007   0.05083   0.32205   0.11680
H          H       0.48584   0.95636   0.65383   0.10234
H          H       0.17257   0.05214   0.22605   0.11493
H          H       0.50787   0.15493   0.62677   0.13234
H          H       0.16994   0.84337   0.25358   0.12784
H          H       0.35363   0.94195   0.51790   0.14060
H          H       0.11768   0.05095   0.36071   0.11918
H          H       0.50634   0.89969   0.67487   0.12140
H          H       0.18796   0.11159   0.20679   0.12972
H          H       0.29267   0.05842   0.58698   0.10956
H          H       0.30476   0.94263   0.29291   0.11008
H          H       0.24143   0.28175   0.65799   0.14619
H          H       0.47026   0.71940   0.22325   0.15145
H          H       0.22205   0.93078   0.43934   0.14117
H          H       0.76177   0.49814   0.85228   0.11051
H          H       0.69281   0.49521   0.26203   0.10963
H          H       0.76437   0.99786   0.35158   0.11070
H          H       0.70699   0.99578   0.76212   0.10934
H          H       0.29214   0.50064   0.14524   0.11085
H          H       0.35173   0.50286   0.73513   0.10924
H          H       0.29194  -0.00041   0.64521   0.11117
H          H       0.34828   0.00344   0.23507   0.10979
C          C       0.83351   0.60008   0.87476  -0.11442
C          C       0.59606   0.39565   0.23695  -0.12171
C          C       0.78553   0.46649   0.94851  -0.11755
C          C       0.68934   0.52572   0.16583  -0.12969
C          C       0.85004   0.42643   0.84894  -0.11229
C          C       0.61607   0.56789   0.26551  -0.12174
C          C       0.82391   0.63225   0.86292  -0.15416
C          C       0.59080   0.36191   0.24745  -0.15470
C          C       0.78975   0.46580   0.97038  -0.17939
C          C       0.70657   0.52625   0.14403  -0.15880
C          C       0.83480   0.39359   0.83741  -0.15559
C          C       0.61338   0.60121   0.27656  -0.15426
C          C       0.75900   0.66756   0.81019   0.43346
C          C       0.64385   0.32111   0.29914   0.42540
C          C       0.81283   0.52994   0.01744   0.43586
C          C       0.78119   0.46483   0.09845   0.43449
C          C       0.77083   0.29536   0.84257   0.42982
C          C       0.65506   0.70091   0.27071   0.43088
C          C       0.73142   0.70699   0.80467  -0.05518
C          C       0.66540   0.28139   0.30416  -0.05007
C          C       0.80226   0.51667   0.03947  -0.04736
C          C       0.78427   0.47786   0.07627  -0.04705
C          C       0.74239   0.26768   0.82534  -0.05539
C          C       0.67145   0.72862   0.28815  -0.05436
C          C       0.75774   0.53239   0.90223  -0.18953
C          C       0.72597   0.46288   0.21183  -0.18362
C          C       0.75603   0.53232   0.88012   0.07414
C          C       0.70835   0.46214   0.23382   0.07535
C          C       0.74458   0.56681   0.86793   0.06456
C          C       0.69892   0.42644   0.24507   0.06520
C          C       0.72447   0.63152   0.84396   0.17977
C          C       0.68941   0.35864   0.26629   0.17483
C          C       0.62758   0.76271   0.82275  -0.07092
C          C       0.75187   0.22499   0.28557  -0.06974
C          C       0.76377   0.45746   0.05771  -0.07185
C          C       0.83944   0.09951   0.37453  -0.11398
C          C       0.60985   0.89605   0.73670  -0.11972
C          C       0.77343   0.96434   0.44775  -0.11709
C          C       0.69315   0.02544   0.66564  -0.12860
C          C       0.85068   0.92525   0.34808  -0.11530
C          C       0.63070   0.06803   0.76605  -0.11943
C          C       0.82929   0.13193   0.36289  -0.15713
C          C       0.60207   0.86215   0.74704  -0.15347
C          C       0.77826   0.96330   0.46962  -0.18437
C          C       0.70730   0.02551   0.64378  -0.15985
C          C       0.83191   0.89233   0.33667  -0.15661
C          C       0.62698   0.10122   0.77726  -0.15689
C          C       0.75034   0.16770   0.31025   0.42846
C          C       0.63499   0.82019   0.79848   0.42690
C          C       0.80632   0.02802   0.51697   0.43440
C          C       0.78785   0.96341   0.59814   0.43479
C          C       0.74731   0.79403   0.34258   0.43187
C          C       0.65232   0.20115   0.77154   0.43203
C          C       0.72756   0.20733   0.30494  -0.05160
C          C       0.65876   0.78059   0.80360  -0.05079
C          C       0.79985   0.01474   0.53900  -0.04895
C          C       0.79234   0.97629   0.57592  -0.05171
C          C       0.72578   0.76654   0.32514  -0.05376
C          C       0.67173   0.22910   0.78886  -0.05285
C          C       0.76304   0.03134   0.40172  -0.19011
C          C       0.73797   0.96335   0.71194  -0.18401
C          C       0.76109   0.03167   0.37961   0.07387
C          C       0.72159   0.96261   0.73396   0.07615
C          C       0.74893   0.06643   0.36765   0.06213
C          C       0.71095   0.92678   0.74516   0.06316
C          C       0.72694   0.13171   0.34413   0.18057
C          C       0.69588   0.85854   0.76616   0.17564
C          C       0.64269   0.26383   0.32353  -0.07202
C          C       0.76340   0.72497   0.78553  -0.06811
C          C       0.78357   0.95552   0.55739  -0.06983
C          C       0.65363   0.39916   0.87632  -0.11395
C          C       0.80274   0.59726   0.23814  -0.11576
C          C       0.74887   0.53181   0.94910  -0.11606
C          C       0.85736   0.46933   0.16705  -0.12826
C          C       0.64629   0.56670   0.84876  -0.11141
C          C       0.79598   0.42252   0.26409  -0.12063
C          C       0.63780   0.36622   0.86490  -0.15064
C          C       0.80034   0.63078   0.24895  -0.15207
C          C       0.75120   0.53185   0.97101  -0.18091
C          C       0.87305   0.46924   0.14517  -0.15399
C          C       0.63554   0.59869   0.83686  -0.15563
C          C       0.79209   0.38894   0.27467  -0.15665
C          C       0.65175   0.32537   0.81296   0.42987
C          C       0.75435   0.67077   0.30110   0.42945
C          C       0.74783   0.46593   0.01705   0.43618
C          C       0.81984   0.52958   0.09856   0.43582
C          C       0.65268   0.69850   0.84032   0.42990
C          C       0.73370   0.29005   0.26822   0.42845
C          C       0.67164   0.28540   0.80763  -0.05083
C          C       0.72927   0.71046   0.30633  -0.05227
C          C       0.77204   0.47834   0.03927  -0.04324
C          C       0.80901   0.51647   0.07641  -0.05187
C          C       0.66655   0.72530   0.82265  -0.05108
C          C       0.71859   0.26273   0.28577  -0.04770
C          C       0.76601   0.46596   0.90236  -0.18802
C          C       0.73199   0.52957   0.21241  -0.18501
C          C       0.76535   0.46509   0.88029   0.07561
C          C       0.71501   0.52976   0.23443   0.07344
C          C       0.75950   0.42973   0.86856   0.06362
C          C       0.71099   0.56518   0.24614   0.06445
C          C       0.72866   0.36352   0.84545   0.17986
C          C       0.70584   0.63267   0.26823   0.17429
C          C       0.77920   0.23016   0.82550  -0.07284
C          C       0.63902   0.76640   0.28777  -0.06907
C          C       0.82001   0.53720   0.05806  -0.06515
C          C       0.65196   0.89902   0.37557  -0.11755
C          C       0.80370   0.09853   0.73805  -0.11335
C          C       0.77651   0.03028   0.44853  -0.11846
C          C       0.86190   0.96924   0.66690  -0.12693
C          C       0.64806   0.06683   0.34867  -0.11036
C          C       0.80300   0.92255   0.76448  -0.12047
C          C       0.63212   0.86605   0.36427  -0.15142
C          C       0.79996   0.13193   0.74902  -0.15549
C          C       0.77904   0.03006   0.47042  -0.18790
C          C       0.87446   0.96868   0.64499  -0.15845
C          C       0.63600   0.09908   0.33701  -0.15679
C          C       0.79606   0.88880   0.77494  -0.15943
C          C       0.65570   0.82496   0.31200   0.43254
C          C       0.76757   0.17184   0.80145   0.43030
C          C       0.77063   0.96333   0.51659   0.43323
C          C       0.81246   0.02842   0.59810   0.43394
C          C       0.66796   0.19957   0.34115   0.42825
C          C       0.74534   0.79000   0.76825   0.43139
C          C       0.66962   0.78480   0.30692  -0.05154
C          C       0.74149   0.21149   0.80664  -0.05444
C          C       0.78643   0.97620   0.53885  -0.04289
C          C       0.80376   0.01504   0.57597  -0.05075
C          C       0.67600   0.22616   0.32331  -0.05223
C          C       0.72454   0.76246   0.78560  -0.04931
C          C       0.77412   0.96497   0.40149  -0.18742
C          C       0.74046   0.03006   0.71242  -0.18522
C          C       0.77018   0.96443   0.37944   0.07378
C          C       0.72545   0.03036   0.73449   0.07423
C          C       0.76107   0.92909   0.36771   0.06595
C          C       0.71968   0.06583   0.74627   0.06102
C          C       0.72263   0.86277   0.34483   0.18151
C          C       0.71211   0.13325   0.76872   0.17739
C          C       0.75739   0.72878   0.32549  -0.07373
C          C       0.63325   0.26667   0.78874  -0.07049
C          C       0.80790   0.03559   0.55754  -0.06718
C          C       0.22879   0.39858   0.12211  -0.11490
C          C       0.45030   0.60183   0.76060  -0.11927
C          C       0.27854   0.53347   0.04893  -0.11872
C          C       0.36211   0.47174   0.83126  -0.12968
C          C       0.20626   0.57260   0.14876  -0.11228
C          C       0.42760   0.43081   0.73095  -0.11983
C          C       0.24036   0.36623   0.13378  -0.15492
C          C       0.45859   0.63563   0.75016  -0.15526
C          C       0.27258   0.53407   0.02705  -0.18083
C          C       0.34845   0.47132   0.85310  -0.16072
C          C       0.22176   0.60528   0.16045  -0.15729
C          C       0.43493   0.39766   0.71978  -0.15799
C          C       0.30034   0.33073   0.18654   0.43190
C          C       0.41477   0.67692   0.69854   0.42479
C          C       0.24384   0.46907   0.98010   0.43471
C          C       0.27561   0.53323   0.89864   0.43384
C          C       0.29234   0.70334   0.15516   0.43201
C          C       0.41955   0.29781   0.72580   0.43046
C          C       0.32661   0.29126   0.19204  -0.05440
C          C       0.39665   0.71672   0.69350  -0.05004
C          C       0.25465   0.48210   0.95798  -0.04677
C          C       0.27151   0.52059   0.92093  -0.04827
C          C       0.31784   0.73138   0.17227  -0.05125
C          C       0.39801   0.26945   0.70868  -0.05267
C          C       0.30090   0.46711   0.09515  -0.18906
C          C       0.31874   0.53459   0.78543  -0.18476
C          C       0.30075   0.46678   0.11726   0.07296
C          C       0.33560   0.53553   0.76343   0.07607
C          C       0.31323   0.43207   0.12926   0.06389
C          C       0.34629   0.57134   0.75232   0.06310
C          C       0.33756   0.36699   0.15289   0.18182
C          C       0.36198   0.63926   0.73123   0.17556
C          C       0.43430   0.23577   0.17404  -0.07070
C          C       0.31003   0.77314   0.71208  -0.06757
C          C       0.28791   0.54121   0.93946  -0.07119
C          C       0.22375   0.89763   0.62275  -0.11467
C          C       0.44390   0.10309   0.26027  -0.12180
C          C       0.25950   0.03126   0.54901  -0.11825
C          C       0.36273   0.97232   0.33112  -0.13159
C          C       0.21134   0.07164   0.64891  -0.11262
C          C       0.42901   0.93107   0.23149  -0.12077
C          C       0.23537   0.86549   0.63460  -0.15395
C          C       0.45129   0.13664   0.24958  -0.15291
C          C       0.25631   0.03194   0.52712  -0.17903
C          C       0.35090   0.97167   0.35298  -0.15980
C          C       0.22912   0.10438   0.66052  -0.15711
C          C       0.43350   0.89788   0.22032  -0.15845
C          C       0.31516   0.83052   0.68747   0.43006
C          C       0.42181   0.17788   0.19795   0.43029
C          C       0.25195   0.96811   0.48017   0.43278
C          C       0.28579   0.03302   0.39894   0.43631
C          C       0.30096   0.20272   0.65503   0.43089
C          C       0.39910   0.79849   0.22604   0.43432
C          C       0.33705   0.79088   0.69278  -0.05286
C          C       0.39919   0.21760   0.19301  -0.04945
C          C       0.26232   0.98120   0.45806  -0.04507
C          C       0.28335   0.01996   0.42115  -0.05315
C          C       0.32812   0.23049   0.67224  -0.05520
C          C       0.38246   0.77042   0.20876  -0.05207
C          C       0.29845   0.96570   0.59520  -0.18926
C          C       0.31745   0.03555   0.28534  -0.18366
C          C       0.29961   0.96560   0.61732   0.07494
C          C       0.33360   0.03644   0.26331   0.07709
C          C       0.31202   0.93103   0.62948   0.06225
C          C       0.34425   0.07206   0.25197   0.06479
C          C       0.33681   0.86628   0.65343   0.17843
C          C       0.35884   0.13951   0.23032   0.18033
C          C       0.42205   0.73435   0.67419  -0.07090
C          C       0.29040   0.27294   0.21101  -0.06982
C          C       0.30371   0.04032   0.43972  -0.06781
C          C       0.40817   0.59969   0.12184  -0.11466
C          C       0.25748   0.39967   0.75898  -0.11211
C          C       0.30134   0.46785   0.04841  -0.11710
C          C       0.19316   0.52804   0.83031  -0.12836
C          C       0.40952   0.43214   0.14856  -0.11078
C          C       0.25099   0.57561   0.73322  -0.11883
C          C       0.42450   0.63245   0.13342  -0.15130
C          C       0.26502   0.36631   0.74807  -0.15538
C          C       0.29761   0.46768   0.02651  -0.18256
C          C       0.18093   0.52820   0.85220  -0.15704
C          C       0.42232   0.40001   0.16030  -0.15672
C          C       0.25813   0.60926   0.72269  -0.15685
C          C       0.40226   0.67376   0.18538   0.43221
C          C       0.30134   0.32647   0.69582   0.43148
C          C       0.30284   0.53335   0.98016   0.43641
C          C       0.24260   0.46831   0.89894   0.43323
C          C       0.41128   0.29994   0.15651   0.43108
C          C       0.32061   0.70798   0.72922   0.43283
C          C       0.38312   0.71385   0.19032  -0.05246
C          C       0.32942   0.28687   0.69075  -0.05445
C          C       0.28054   0.52051   0.95800  -0.04495
C          C       0.25092   0.48190   0.92100  -0.05165
C          C       0.39490   0.27314   0.17417  -0.05187
C          C       0.34175   0.73537   0.71181  -0.04918
C          C       0.29240   0.53353   0.09529  -0.18618
C          C       0.31457   0.46789   0.78463  -0.18503
C          C       0.29213   0.53406   0.11737   0.07305
C          C       0.33109   0.46788   0.76259   0.07615
C          C       0.29905   0.56928   0.12928   0.06490
C          C       0.33862   0.43260   0.75073   0.06178
C          C       0.33120   0.63518   0.15273   0.18229
C          C       0.35361   0.36534   0.72840   0.17786
C          C       0.28379   0.76902   0.17178  -0.07591
C          C       0.43334   0.23174   0.70901  -0.07087
C          C       0.24070   0.46138   0.93943  -0.06696
C          C       0.40582   0.09880   0.62136  -0.11374
C          C       0.23853   0.90136   0.25843  -0.11389
C          C       0.32860   0.96722   0.54839  -0.12036
C          C       0.19633   0.02890   0.33058  -0.12649
C          C       0.41237   0.93117   0.64851  -0.11254
C          C       0.25333   0.07560   0.23252  -0.11944
C          C       0.42418   0.13163   0.63285  -0.14993
C          C       0.24276   0.86798   0.24749  -0.15525
C          C       0.32684   0.96718   0.52647  -0.18284
C          C       0.18630   0.02887   0.35249  -0.15767
C          C       0.42585   0.89920   0.66039  -0.15615
C          C       0.26011   0.10897   0.22171  -0.15526
C          C       0.41192   0.17267   0.68507   0.42724
C          C       0.29304   0.82772   0.19559   0.43410
C          C       0.31480   0.03222   0.48040   0.43653
C          C       0.24609   0.96826   0.39887   0.43505
C          C       0.39821   0.79862   0.65664   0.42815
C          C       0.30274   0.20744   0.22796   0.43072
C          C       0.39494   0.21281   0.69016  -0.04977
C          C       0.31797   0.78792   0.19066  -0.05433
C          C       0.29353   0.01952   0.45819  -0.04525
C          C       0.25709   0.98136   0.42105  -0.04637
C          C       0.38960   0.77205   0.67446  -0.05298
C          C       0.32902   0.23543   0.21089  -0.04655
C          C       0.29390   0.03222   0.59522  -0.18699
C          C       0.31151   0.96883   0.28462  -0.18537
C          C       0.29183   0.03295   0.61730   0.07589
C          C       0.32683   0.96880   0.26258   0.07471
C          C       0.29957   0.06827   0.62914   0.06289
C          C       0.33152   0.93352   0.25072   0.06343
C          C       0.33589   0.13438   0.65246   0.17913
C          C       0.34029   0.86632   0.22839   0.18224
C          C       0.29338   0.26809   0.67190  -0.07357
C          C       0.41880   0.73280   0.20920  -0.07015
C          C       0.24440   0.96069   0.43944  -0.06701
C          C       0.76226   0.49849   0.86938  -0.17662
C          C       0.70428   0.49571   0.24495  -0.18391
C          C       0.76348   0.49936   0.91375   0.05840
C          C       0.73979   0.49647   0.20092   0.07215
C          C       0.76577   0.49931   0.93711   0.04863
C          C       0.76260   0.49714   0.17780   0.05659
C          C       0.77249   0.49867   0.98194   0.18628
C          C       0.79578   0.49762   0.13357   0.18602
C          C       0.76645   0.99798   0.36868  -0.17461
C          C       0.71736   0.99627   0.74503  -0.18281
C          C       0.77081   0.99813   0.41307   0.05800
C          C       0.74913   0.99689   0.70094   0.07218
C          C       0.77346   0.99764   0.43642   0.04975
C          C       0.76871   0.99722   0.67772   0.05505
C          C       0.78098   0.99639   0.48134   0.18879
C          C       0.79541   0.99676   0.63329   0.18725
C          C       0.29335   0.50048   0.12814  -0.17549
C          C       0.34005   0.50207   0.75220  -0.18565
C          C       0.29500   0.50030   0.08376   0.05967
C          C       0.30632   0.50089   0.79623   0.07137
C          C       0.29216   0.50052   0.06038   0.04881
C          C       0.28644   0.50020   0.81939   0.05723
C          C       0.28227   0.50097   0.01550   0.18637
C          C       0.26052   0.49993   0.86370   0.18765
C          C       0.29279  -0.00061   0.62811  -0.17589
C          C       0.33706   0.00290   0.25215  -0.18706
C          C       0.29530   0.99888   0.58376   0.05752
C          C       0.30518   0.00188   0.29621   0.07176
C          C       0.29479   0.99906   0.56039   0.05309
C          C       0.28735   0.00105   0.31942   0.05584
C          C       0.29002  -0.00030   0.51556   0.18679
C          C       0.26520   0.00032   0.36381   0.18885
N          N       0.71345   0.66448   0.83192  -0.20864
N          N       0.68567   0.32442   0.27729  -0.20016
N          N       0.71544   0.16488   0.33228  -0.20723
N          N       0.68932   0.82410   0.77702  -0.20249
N          N       0.71635   0.32950   0.83404  -0.21343
N          N       0.70414   0.66676   0.27953  -0.20156
N          N       0.70659   0.82867   0.33357  -0.21981
N          N       0.70950   0.16731   0.78014  -0.20316
N          N       0.34975   0.33398   0.16487  -0.21056
N          N       0.36967   0.67357   0.72030  -0.20076
N          N       0.34977   0.83330   0.66544  -0.20678
N          N       0.36433   0.17373   0.21928  -0.21435
N          N       0.34308   0.66925   0.16412  -0.22208
N          N       0.36013   0.33133   0.71705  -0.20276
N          N       0.35059   0.16844   0.66384  -0.21349
N          N       0.34481   0.83223   0.21710  -0.21727
N          N       0.77770   0.49822   0.00434  -0.21635
N          N       0.80339   0.49730   0.11121  -0.20948
N          N       0.78633   0.99588   0.50379  -0.21449
N          N       0.80128   0.99612   0.61089  -0.20807
N          N       0.27621   0.50116   0.99307  -0.21453
N          N       0.25585   0.50043   0.88608  -0.20837
N          N       0.28595   0.00003   0.49315  -0.21980
N          N       0.26199   0.00056   0.38620  -0.21001
O          O       0.60006   0.70370   0.85833  -0.39282
O          O       0.77916   0.28510   0.24990  -0.40192
O          O       0.70554   0.43487   0.01071  -0.38317
O          O       0.83789   0.56144   0.10485  -0.40365
O          O       0.59226   0.34998   0.80212  -0.40012
O          O       0.80867   0.64628   0.31236  -0.39447
O          O       0.62929   0.20540   0.35956  -0.39030
O          O       0.79982   0.78523   0.75024  -0.40455
O          O       0.74414   0.93160   0.51038  -0.37870
O          O       0.82741   0.06043   0.60427  -0.40114
O          O       0.61047   0.85001   0.30056  -0.39902
O          O       0.82796   0.14791   0.81267  -0.39413
O          O       0.82891   0.29070   0.86034  -0.39531
O          O       0.60969   0.70556   0.25243  -0.40359
O          O       0.84823   0.56147   0.01158  -0.38606
O          O       0.76262   0.43317   0.10481  -0.39794
O          O       0.80925   0.64250   0.79881  -0.40133
O          O       0.60052   0.34608   0.31096  -0.39374
O          O       0.79087   0.78887   0.36084  -0.39395
O          O       0.59985   0.20544   0.75348  -0.40384
O          O       0.82828   0.06001   0.51122  -0.38174
O          O       0.77310   0.93161   0.60437  -0.39760
O          O       0.78993   0.14242   0.29845  -0.39745
O          O       0.58062   0.84464   0.80998  -0.39489
O          O       0.46570   0.29458   0.13858  -0.39354
O          O       0.26871   0.71302   0.74730  -0.40408
O          O       0.34175   0.56474   0.98623  -0.38355
O          O       0.22846   0.43622   0.89294  -0.40137
O          O       0.45692   0.64946   0.19677  -0.39856
O          O       0.23866   0.35020   0.68462  -0.39570
O          O       0.43779   0.79272   0.63826  -0.39015
O          O       0.23924   0.21134   0.24566  -0.40187
O          O       0.35279   0.06346   0.48673  -0.38548
O          O       0.22846   0.93641   0.39254  -0.40290
O          O       0.46651   0.14806   0.69625  -0.39750
O          O       0.23848   0.85186   0.18411  -0.39465
O          O       0.23816   0.70755   0.13719  -0.39559
O          O       0.47588   0.29431   0.74378  -0.40192
O          O       0.20989   0.43755   0.98613  -0.38339
O          O       0.29389   0.56478   0.89208  -0.39715
O          O       0.24805   0.35564   0.19789  -0.39922
O          O       0.45759   0.65184   0.68679  -0.39457
O          O       0.24715   0.20741   0.63708  -0.39556
O          O       0.44751   0.79444   0.24427  -0.40293
O          O       0.21848   0.93671   0.48635  -0.38508
O          O       0.30420   0.06470   0.39259  -0.39859
O          O       0.27647   0.85578   0.69934  -0.39699
O          O       0.47636   0.15359   0.18635  -0.39503

