data_crystal

_audit_creation_method 'AiiDA-DDEC plugin'

_cell_length_a        23.03515
_cell_length_b        22.48753
_cell_length_c         8.81206

_cell_angle_alpha     89.28456
_cell_angle_beta     83.49005
_cell_angle_gamma     117.26773

_symmetry_space_group_name_Hall 'P 1'
_symmetry_space_group_name_H-M  'P 1'

loop_
_symmetry_equiv_pos_as_xyz
 'x,y,z'

loop_
_atom_site_label
_atom_site_type_symbol
_atom_site_fract_x
_atom_site_fract_y
_atom_site_fract_z
_atom_site_charge
P          P       0.29731   0.37374   0.51586   1.22174
P          P       0.30783   0.26814   0.51372   1.21498
P          P       0.44122   0.43048   0.47862   0.65463
P          P       0.30503   0.37821   0.01812   1.22685
P          P       0.31050   0.26954   0.00935   1.21422
P          P       0.44893   0.43211   0.96392   0.64019
H          H       0.07207   0.40311   0.31548   0.11313
H          H       0.04297   0.24615   0.13905   0.11533
H          H       0.16170   0.27489   0.09526   0.13497
H          H       0.42105   0.54303   0.19654   0.13596
H          H       0.44286   0.66249   0.15385   0.11869
H          H       0.25543   0.58959   0.43116   0.10819
H          H       0.23631   0.47293   0.46491   0.11479
H          H       0.68217   0.79280   0.91462   0.06520
H          H       0.72921   0.37421   0.26168   0.06325
H          H       0.82923   0.77323   0.13682   0.12073
H          H       0.93467   0.87967   0.11974   0.10894
H          H       0.53407   0.52464   0.13069   0.11620
H          H       0.83164   0.99177   0.02941   0.11875
H          H       0.63163   0.63280   0.16522   0.11097
H          H       0.72629   0.88553   0.04901   0.11130
H          H       0.73724   0.24730   0.07721   0.12024
H          H       0.54681   0.73273   0.42084   0.11003
H          H       0.84476   0.24648   0.07849   0.11346
H          H       0.45244   0.62208   0.39412   0.12421
H          H       0.48674   0.34113   0.54376   0.12133
H          H       0.93142   0.43232   0.31952   0.11903
H          H       0.57979   0.29325   0.95475   0.10987
H          H       0.82309   0.43309   0.33697   0.11391
H          H       0.68351   0.43079   0.14766   0.10427
H          H       0.59634   0.46564   0.13209   0.12520
H          H       0.98866   0.98046   0.23265   0.07310
H          H       0.29525   0.13295   0.40789   0.12948
H          H       0.95218   0.27661   0.11106   0.07500
H          H       0.34373   0.05477   0.36656   0.11179
H          H       0.30662   0.70223   0.49145   0.05904
H          H       0.49717   0.17471   0.15462   0.11424
H          H       0.44482   0.25025   0.19562   0.14541
H          H       0.50204   0.86859   0.13038   0.11954
H          H       0.14798   0.21685   0.37023   0.13271
H          H       0.50676   0.98019   0.09569   0.11251
H          H       0.03465   0.11337   0.91101   0.11246
H          H       0.33845   0.89410   0.30866   0.12116
H          H       0.10541   0.03636   0.25716   0.10834
H          H       0.33022   0.78095   0.34657   0.11021
H          H       0.21992   0.12262   0.16782   0.13109
H          H       0.18970   0.42548   0.25993   0.11936
H          H       0.48230   0.06083   0.09704   0.07005
H          H       0.08114   0.41651   0.84107   0.11405
H          H       0.04061   0.26040   0.68459   0.11215
H          H       0.15808   0.28395   0.63140   0.13278
H          H       0.39343   0.53428   0.74219   0.13721
H          H       0.41350   0.65398   0.70664   0.11630
H          H       0.25291   0.59215   0.00011   0.11020
H          H       0.23426   0.47533   0.03042   0.11462
H          H       0.65692   0.80000   0.46841   0.06516
H          H       0.75189   0.40697   0.75794   0.06270
H          H       0.79747   0.79105   0.75584   0.11734
H          H       0.89732   0.89733   0.77356   0.10511
H          H       0.56466   0.52341   0.51454   0.11908
H          H       0.85540   0.98562   0.39096   0.11329
H          H       0.65871   0.63478   0.54583   0.11487
H          H       0.75425   0.87920   0.37560   0.10250
H          H       0.73588   0.25381   0.63960   0.12040
H          H       0.58695   0.72926   0.80429   0.10505
H          H       0.84417   0.25420   0.62603   0.11044
H          H       0.49160   0.62105   0.76438   0.12195
H          H       0.48503   0.31807   0.93023   0.11569
H          H       0.94350   0.44282   0.84262   0.11650
H          H       0.57754   0.31147   0.56692   0.10912
H          H       0.83681   0.44527   0.84924   0.11100
H          H       0.71331   0.48558   0.72107   0.10995
H          H       0.61953   0.51250   0.71381   0.13423
H          H       0.99111   0.97011   0.69757   0.06795
H          H       0.28852   0.12266   0.94564   0.13117
H          H       0.94979   0.28499   0.63609   0.07226
H          H       0.34008   0.04668   0.90827   0.11279
H          H       0.31678   0.70869   0.02032   0.06093
H          H       0.48263   0.15818   0.67783   0.11155
H          H       0.43319   0.23622   0.72100   0.13776
H          H       0.49843   0.86391   0.59119   0.12120
H          H       0.15091   0.20105   0.82162   0.13049
H          H       0.50749   0.97763   0.54955   0.11583
H          H       0.03125   0.12890   0.45737   0.11402
H          H       0.35325   0.89890   0.80773   0.11928
H          H       0.10483   0.01773   0.70537   0.11012
H          H       0.34987   0.78710   0.83924   0.11147
H          H       0.21990   0.10479   0.62015   0.13075
H          H       0.20090   0.44485   0.79477   0.12605
H          H       0.46410   0.04575   0.60615   0.06992
C          C       0.09129   0.37703   0.38293  -0.09210
C          C       0.04827   0.33013   0.50279   0.04111
C          C       0.07709   0.28977   0.06298  -0.10061
C          C       0.13874   0.30921   0.56218  -0.20921
C          C       0.38610   0.55531   0.14910  -0.17704
C          C       0.39736   0.62122   0.12742  -0.08761
C          C       0.33767   0.63015   0.56134   0.03473
C          C       0.28634   0.57805   0.49829  -0.10576
C          C       0.27579   0.51211   0.51528  -0.21348
C          C       0.67402   0.75182  -0.00250   0.07709
C          C       0.69504   0.35990   0.36917   0.08739
C          C       0.50251   0.56615   0.45179   0.29068
C          C       0.53762   0.40731   0.34014   0.28644
C          C       0.77123   0.82181   0.09058   0.19882
C          C       0.36032   0.18720   0.57193   0.29568
C          C       0.77864   0.34435   0.95587   0.20238
C          C       0.19152   0.16577   0.98788   0.28896
C          C       0.83037   0.82152   0.11568  -0.14500
C          C       0.32888   0.50343   0.10678   0.30045
C          C       0.88881   0.88097   0.10720  -0.17226
C          C       0.17991   0.35589   0.44278   0.28017
C          C       0.89005   0.94327   0.07575   0.19440
C          C       0.54698   0.56928   0.05694  -0.22973
C          C       0.83056   0.94372   0.05415  -0.15035
C          C       0.60080   0.62982   0.07781  -0.07210
C          C       0.77200   0.88421   0.06351  -0.17263
C          C       0.61606   0.68829   0.98654   0.02925
C          C       0.78277   0.28974   0.02517  -0.15158
C          C       0.55117   0.68709   0.44056  -0.10469
C          C       0.84324   0.28970   0.02605  -0.16457
C          C       0.49793   0.62531   0.42529  -0.19890
C          C       0.90214   0.34484   0.95760   0.19155
C          C       0.53080   0.36177   0.45989  -0.22225
C          C       0.89786   0.40021   0.89330  -0.13856
C          C       0.58129   0.34481   0.47165  -0.08019
C          C       0.83795   0.40081   0.89534  -0.17476
C          C       0.63774   0.37063   0.36109   0.02738
C          C       0.64120   0.41251   0.23643  -0.09829
C          C       0.59245   0.43193   0.22661  -0.20153
C          C       0.99582   0.01375   0.13203   0.07481
C          C       0.33572   0.13794   0.46756  -0.21665
C          C       0.98465   0.31590   0.02122   0.06383
C          C       0.36333   0.09492   0.44294  -0.08264
C          C       0.34945   0.69845   0.52506   0.07235
C          C       0.41551   0.10037   0.52082   0.03265
C          C       0.45210   0.16372   0.10640  -0.10613
C          C       0.41106   0.81381   0.48316   0.19193
C          C       0.42349   0.20641   0.12980  -0.18307
C          C       0.46974   0.87578   0.05953  -0.14678
C          C       0.13961   0.16477   0.91718  -0.18410
C          C       0.46790   0.93456   0.50742  -0.17007
C          C       0.07550   0.11652   0.96743  -0.09549
C          C       0.42012   0.94253   0.43498   0.19989
C          C       0.06215   0.06882   0.08891   0.03432
C          C       0.37211   0.88623   0.37351  -0.14412
C          C       0.11481   0.07202   0.16125  -0.10278
C          C       0.36740   0.82308   0.39702  -0.17260
C          C       0.17954   0.12025   0.11124  -0.21216
C          C       0.15635   0.38948   0.35219  -0.19325
C          C       0.43529   0.04724   0.51603   0.07619
C          C       0.09942   0.38605   0.89576  -0.08861
C          C       0.05393   0.32989   0.99343   0.03895
C          C       0.07289   0.29636   0.59057  -0.09843
C          C       0.14379   0.30530   0.03919  -0.20670
C          C       0.36462   0.54806   0.67303  -0.18401
C          C       0.37545   0.61400   0.65279  -0.09100
C          C       0.35020   0.63566   0.07025   0.03656
C          C       0.29064   0.58200   0.04089  -0.11020
C          C       0.27983   0.51578   0.05752  -0.21500
C          C       0.66390   0.75662   0.50206   0.07723
C          C       0.71072   0.37799   0.84821   0.08923
C          C       0.50797   0.56628   0.94292   0.28537
C          C       0.54786   0.41652   0.82166   0.27982
C          C       0.76864   0.82723   0.56558   0.19874
C          C       0.36366   0.18988   0.07526   0.28981
C          C       0.77088   0.34110   0.48315   0.20300
C          C       0.18976   0.16497   0.48905   0.28664
C          C       0.81046   0.83414   0.67684  -0.15235
C          C       0.31660   0.49838   0.59874   0.30012
C          C       0.86680   0.89395   0.68527  -0.16432
C          C       0.18746   0.36190   0.94405   0.28881
C          C       0.88468   0.94898   0.57884   0.19075
C          C       0.56072   0.56919   0.49450  -0.21579
C          C       0.84131   0.94309   0.47260  -0.14507
C          C       0.61347   0.63122   0.51088  -0.07505
C          C       0.78447   0.88341   0.46508  -0.17470
C          C       0.60979   0.69118   0.48355   0.03167
C          C       0.77887   0.29245   0.56874  -0.15606
C          C       0.57534   0.68441   0.87567  -0.09544
C          C       0.83987   0.29320   0.56131  -0.16183
C          C       0.52178   0.62402   0.85290  -0.19591
C          C       0.89570   0.34351   0.46941   0.18808
C          C       0.53561   0.35432   0.88829  -0.20897
C          C       0.88796   0.39325   0.38820  -0.14534
C          C       0.58825   0.34071   0.90008  -0.07806
C          C       0.82733   0.39293   0.39673  -0.18187
C          C       0.65278   0.38767   0.83933   0.03670
C          C       0.66344   0.44899   0.76816  -0.10274
C          C       0.61171   0.46434   0.76263  -0.19629
C          C       0.99447   0.01114   0.62201   0.06327
C          C       0.33393   0.13369   0.99125  -0.21416
C          C       0.98003   0.31878   0.53532   0.06423
C          C       0.36293   0.09182   0.96895  -0.08124
C          C       0.36097   0.70406   0.03981   0.06978
C          C       0.42151   0.10509   0.02883   0.03375
C          C       0.44212   0.15307   0.61721  -0.10064
C          C       0.42248   0.81916  -0.00298   0.19866
C          C       0.41502   0.19682   0.64240  -0.18403
C          C       0.46333   0.87109   0.53029  -0.14428
C          C       0.13724   0.17329   0.44513  -0.18550
C          C       0.47192   0.93823   0.03994  -0.16262
C          C       0.07294   0.12474   0.49359  -0.09529
C          C       0.42731   0.94643   0.95502   0.19246
C          C       0.06040   0.06723   0.58515   0.03955
C          C       0.38477   0.89115   0.88020  -0.14442
C          C       0.11401   0.06126   0.63188  -0.10890
C          C       0.38224   0.82868   0.90021  -0.17794
C          C       0.17867   0.10977   0.58449  -0.20751
C          C       0.16551   0.40183   0.87031  -0.19713
C          C       0.44484   0.05454   0.02295   0.07088
N          N       0.36642   0.38651   0.39981  -0.38366
N          N       0.27678   0.30777   0.11207  -0.82458
N          N       0.36756   0.32054   0.39121  -0.59027
N          N       0.71569   0.75933   0.09178  -0.30193
N          N       0.71610   0.34106   0.95425  -0.31309
N          N       0.94876   0.00343   0.05197  -0.29826
N          N       0.96584   0.35136   0.94291  -0.29902
N          N       0.40569   0.75086   0.52673  -0.29157
N          N       0.41311   0.00094   0.42115  -0.30705
N          N       0.37172   0.38764   0.89662  -0.38520
N          N       0.27187   0.30481   0.61493  -0.82857
N          N       0.36901   0.32032   0.88203  -0.59769
N          N       0.71596   0.76351   0.55814  -0.29745
N          N       0.70822   0.33787   0.49075  -0.30627
N          N       0.94503   0.00800   0.55955  -0.30124
N          N       0.95937   0.34979   0.44849  -0.29795
N          N       0.41791   0.75624   0.03479  -0.28380
N          N       0.41741   0.00319   0.94333  -0.31016
O          O       0.49234   0.43090   0.32532  -0.34768
O          O       0.44807   0.50708   0.42932  -0.35528
O          O       0.25516   0.21154   0.92109  -0.38696
O          O       0.33121   0.22753   0.12179  -0.37826
O          O       0.32245   0.43836   0.12727  -0.37720
O          O       0.24707   0.37336   0.40269  -0.37616
O          O       0.49749   0.43290   0.80650  -0.35952
O          O       0.45305   0.50777   0.91741  -0.35811
O          O       0.25338   0.21078   0.42216  -0.39739
O          O       0.32836   0.22489   0.62257  -0.37149
O          O       0.30949   0.43337   0.62332  -0.37364
O          O       0.25559   0.38351   0.91115  -0.37790

