data_crystal

_audit_creation_method 'AiiDA-DDEC plugin'

_cell_length_a        26.97259
_cell_length_b        27.09794
_cell_length_c         9.83657

_cell_angle_alpha     90.08950
_cell_angle_beta     108.47354
_cell_angle_gamma     120.47006

_symmetry_space_group_name_Hall 'P 1'
_symmetry_space_group_name_H-M  'P 1'

loop_
_symmetry_equiv_pos_as_xyz
 'x,y,z'

loop_
_atom_site_label
_atom_site_type_symbol
_atom_site_fract_x
_atom_site_fract_y
_atom_site_fract_z
_atom_site_charge
P          P       0.43734   0.29923   0.56822   1.34269
P          P       0.53258   0.30944   0.50145   1.34323
P          P       0.50622   0.36955   0.05554   1.33710
P          P       0.41810   0.26135   0.06215   1.34527
P          P       0.51622   0.27699   0.99577   1.35271
P          P       0.52306   0.40389   0.53648   1.32486
H          H       0.75728   0.50265   0.22204   0.11336
H          H       0.62497   0.21901   0.18566   0.12669
H          H       0.46757   0.06790   0.97184   0.11358
H          H       0.53592   0.60068   0.27799   0.11596
H          H       0.37430   0.32609   0.13964   0.14226
H          H       0.97878   0.27990   0.26826   0.10256
H          H       0.40848   0.42932   0.46923   0.13000
H          H       0.82381   0.39266   0.48374   0.06435
H          H       0.62467   0.26046   0.41483   0.12581
H          H       0.28846   0.21946   0.61619   0.12378
H          H       0.35867   0.92704   0.37275   0.13413
H          H       0.33499   0.85058   0.87105   0.13124
H          H       0.39061   0.92417   0.96737   0.13744
H          H       0.08007   0.24642   0.04580   0.10280
H          H       0.38886   0.51008   0.44085   0.11561
H          H       0.37437   0.74341   0.28179   0.10859
H          H       0.57669   0.52506   0.09177   0.12594
H          H       0.17659   0.23388   0.24891   0.10874
H          H       0.21041   0.11132   0.56593   0.11365
H          H       0.33782   0.18135   0.35545   0.12297
H          H       0.61648   0.16482   0.40287   0.11063
H          H       0.99187   0.82939   0.28416   0.10829
H          H       0.10557   0.43956   0.13263   0.11090
H          H       0.91955   0.58300   0.24618   0.13093
H          H       0.99614   0.64629   0.32684   0.12930
H          H       0.93484   0.63933   0.37392   0.13136
H          H       0.17424   0.88492   0.13946   0.11350
H          H       0.55811   0.06114   0.36295   0.06682
H          H       0.90748   0.40755   0.04841   0.10961
H          H       0.41681   0.60590   0.38882   0.07004
H          H       0.08603   0.93473   0.17652   0.12286
H          H       0.01513   0.91648   0.18955   0.13247
H          H       0.08479   0.98498   0.28846   0.12924
H          H       0.63656   0.37806   0.43899   0.13662
H          H       0.51812   0.98385   0.16951   0.11027
H          H       0.51932   0.89366   0.15152   0.10733
H          H       0.37820   0.79711   0.83748   0.11289
H          H       0.99783   0.25295   0.08803   0.10651
H          H       0.73491   0.40164   0.41732   0.10268
H          H       0.65975   0.42716   0.25602   0.12937
H          H       0.02594   0.72358   0.20050   0.10920
H          H       0.25097   0.07899   0.31973   0.09882
H          H       0.00059   0.41734   0.02773   0.10911
H          H       0.38024   0.65565   0.28473   0.10983
H          H       0.55795   0.84361   0.27401   0.11069
H          H       0.26073   0.21902   0.24829   0.13343
H          H       0.12925   0.26362   0.87826   0.06361
H          H       0.55653   0.51955   0.30998   0.12617
H          H       0.83204   0.69071   0.37871   0.10617
H          H       0.91949   0.77817   0.34784   0.10722
H          H       0.67402   0.60138   0.06386   0.10961
H          H       0.43047   0.17293   0.33376   0.13027
H          H       0.20319   0.45002   0.97180   0.14103
H          H       0.20784   0.48810   0.12766   0.12560
H          H       0.24497   0.44789   0.14794   0.13165
H          H       0.09263   0.78967   0.15804   0.10626
H          H       0.29610   0.34875   0.14385   0.11191
H          H       0.56534   0.72573   0.16700   0.13945
H          H       0.61260   0.80036   0.25871   0.12865
H          H       0.60119   0.74326   0.35927   0.13192
H          H       0.73310   0.25563   0.19966   0.11552
H          H       0.89774   0.23217   0.35267   0.12579
H          H       0.87745   0.27935   0.41068   0.13279
H          H       0.82758   0.22748   0.24560   0.13056
H          H       0.77343   0.63770   0.07181   0.06272
H          H       0.18564   0.98335   0.19231   0.06710
H          H       0.76337   0.52063   0.62254   0.11850
H          H       0.67437   0.30355   0.81498   0.13286
H          H       0.42154   0.07628   0.31700   0.11696
H          H       0.50145   0.55744   0.76815   0.10960
H          H       0.38844   0.36006   0.62185   0.13663
H          H       0.99014   0.30634   0.74600   0.10421
H          H       0.40604   0.40401   0.04267   0.12930
H          H       0.83819   0.40253   0.12756   0.06870
H          H       0.55835   0.21767   0.68626   0.12603
H          H       0.33736   0.14272   0.92993   0.13387
H          H       0.35228   0.90983   0.77642   0.13255
H          H       0.36573   0.87679   0.48302   0.13115
H          H       0.42019   0.95317   0.54243   0.12291
H          H       0.09785   0.27184   0.55206   0.10388
H          H       0.38834   0.48606   0.02738   0.10995
H          H       0.41201   0.74486   0.96377   0.10309
H          H       0.60795   0.56879   0.62220   0.13289
H          H       0.15975   0.20914   0.77339   0.10740
H          H       0.24880   0.04147   0.89218   0.10982
H          H       0.43129   0.18572   0.66689   0.13112
H          H       0.55102   0.12293   0.64940   0.10049
H          H       0.95673   0.80741   0.82415   0.10790
H          H       0.11089   0.46085   0.57405   0.10981
H          H       0.93323   0.60220   0.67475   0.13437
H          H       0.01030   0.66223   0.77254   0.12906
H          H       0.94818   0.65030   0.82433   0.13600
H          H       0.18535   0.93944   0.71882   0.10522
H          H       0.52062   0.02660   0.70223   0.07141
H          H       0.92511   0.43880   0.53162   0.10977
H          H       0.40708   0.57700   0.94959   0.06842
H          H       0.06222   0.92699   0.70998   0.13781
H          H       0.98429   0.88398   0.70128   0.12875
H          H       0.03929   0.95010   0.83328   0.13008
H          H       0.64060   0.37480   0.04785   0.13867
H          H       0.56531   0.97483   0.82258   0.11010
H          H       0.55823   0.88025   0.80833   0.10788
H          H       0.40931   0.82865   0.42027   0.10953
H          H       0.01597   0.27866   0.59618   0.10532
H          H       0.74859   0.41236   0.06717   0.11114
H          H       0.66640   0.44686   0.65921   0.12924
H          H       0.04590   0.74690   0.67202   0.10913
H          H       0.35634   0.07927   0.63014   0.11219
H          H       0.01220   0.44082   0.49410   0.10810
H          H       0.41060   0.65415   0.97241   0.10681
H          H       0.51627   0.79076   0.68159   0.10988
H          H       0.23768   0.18578   0.77104   0.12979
H          H       0.13878   0.28106   0.36196   0.06350
H          H       0.51930   0.47447   0.78503   0.13473
H          H       0.80877   0.64968   0.89056   0.09797
H          H       0.89184   0.73234   0.83697   0.09980
H          H       0.70543   0.64326   0.58877   0.10849
H          H       0.47410   0.16174   0.00891   0.14005
H          H       0.20827   0.50826   0.54571   0.12849
H          H       0.24993   0.47211   0.57537   0.13466
H          H       0.19947   0.46274   0.39768   0.13155
H          H       0.10615   0.83991   0.71833   0.10546
H          H       0.30497   0.37496   0.62085   0.11471
H          H       0.50720   0.65353   0.63178   0.12215
H          H       0.53820   0.72568   0.59461   0.12853
H          H       0.57644   0.71198   0.75995   0.13347
H          H       0.77530   0.32983   0.79690   0.11480
H          H       0.84629   0.24537   0.69792   0.13064
H          H       0.91458   0.26858   0.85361   0.12787
H          H       0.86839   0.29874   0.84542   0.13084
H          H       0.79994   0.67327   0.57076   0.05720
H          H       0.25372   0.99786   0.59932   0.07151
C          C       0.47286   0.69933   0.28287   0.13453
C          C       0.86937   0.64088   0.07939   0.13781
C          C       0.52270   0.75285   0.27443   0.11181
C          C       0.51886   0.80227   0.27627  -0.20181
C          C       0.46682   0.80089   0.28268   0.07104
C          C       0.41659   0.74673   0.28438  -0.13823
C          C       0.41978   0.69712   0.28496  -0.17002
C          C       0.93173   0.65986   0.16131   0.10961
C          C       0.97844   0.70798   0.13094  -0.20291
C          C       0.96655   0.73733   0.01863   0.06484
C          C       0.92868   0.75298   0.42669  -0.13344
C          C       0.48396   0.47091   0.39189   0.29056
C          C       0.87927   0.70437   0.44561  -0.18524
C          C       0.61258   0.47107   0.16957   0.29190
C          C       0.17627   0.29381   0.95845   0.06715
C          C       0.64886   0.33735   0.62551   0.28759
C          C       0.52753   0.22146   0.37130   0.29211
C          C       0.13925   0.33908   0.06181   0.14279
C          C       0.32943   0.28914   0.43301   0.28675
C          C       0.14637   0.39432   0.08654   0.10523
C          C       0.34174   0.16824   0.14520   0.29128
C          C       0.09943   0.39696   0.11147  -0.19408
C          C       0.52003   0.51851   0.33715  -0.19352
C          C       0.04572   0.34682   0.11526   0.06736
C          C       0.50852   0.56297   0.31947  -0.09563
C          C       0.03939   0.29249   0.08868  -0.14278
C          C       0.46083   0.56046   0.35574   0.03207
C          C       0.08503   0.28866   0.06218  -0.18697
C          C       0.42534   0.51219   0.41083  -0.10714
C          C       0.99614   0.34849   0.14435   0.06823
C          C       0.43630   0.46697   0.42830  -0.19710
C          C       0.97689   0.38641   0.08941  -0.12893
C          C       0.66362   0.46516   0.21210  -0.18866
C          C       0.92424   0.38079   0.10120  -0.16631
C          C       0.71756   0.50714   0.19356  -0.08275
C          C       0.88950   0.33776   0.16998   0.13260
C          C       0.72150   0.55607   0.13619   0.04426
C          C       0.91044   0.30154   0.23349   0.11756
C          C       0.67096   0.56299   0.10477  -0.10970
C          C       0.96286   0.30766   0.21904  -0.20576
C          C       0.61640   0.52068   0.12087  -0.19917
C          C       0.65323   0.26157   0.16297  -0.19685
C          C       0.81148   0.35797   0.14617   0.05482
C          C       0.71288   0.28190   0.17035  -0.09222
C          C       0.49639   0.89933   0.21784  -0.13470
C          C       0.76168   0.36643   0.60438   0.03956
C          C       0.49603   0.95032   0.22826  -0.17475
C          C       0.72250   0.38090   0.50620  -0.10830
C          C       0.46386   0.95781   0.30641   0.13563
C          C       0.66662   0.36719   0.51670  -0.21844
C          C       0.42936   0.91194   0.37025   0.10007
C          C       0.47031   0.17026   0.34607  -0.17838
C          C       0.43228   0.86212   0.36255  -0.20158
C          C       0.46565   0.11678   0.33773  -0.08601
C          C       0.51803   0.11402   0.35580   0.04027
C          C       0.51439   0.05854   0.34580   0.05908
C          C       0.57545   0.16637   0.38654  -0.11671
C          C       0.46529   0.85448   0.28744   0.05579
C          C       0.58057   0.22021   0.39440  -0.18829
C          C       0.07963   0.81364   0.08129  -0.13317
C          C       0.31796   0.12920   0.01430  -0.20958
C          C       0.12610   0.86756   0.07134  -0.18600
C          C       0.26870   0.07213   0.99385  -0.08426
C          C       0.11190   0.90064   0.97439   0.14010
C          C       0.24414   0.05316   0.10359   0.03472
C          C       0.07751   0.91077   0.38068   0.10267
C          C       0.26968   0.09296   0.23430  -0.10547
C          C       0.03399   0.85342   0.38103  -0.20035
C          C       0.31795   0.15030   0.25526  -0.19212
C          C       0.32785   0.30177   0.05730  -0.21539
C          C       0.19329   0.99397   0.08988   0.06887
C          C       0.28403   0.31426   0.05962  -0.07661
C          C       0.01695   0.79093   0.99658   0.05941
C          C       0.22322   0.28220   0.95583   0.03408
C          C       0.57879   0.75608   0.26489  -0.41817
C          C       0.22312   0.26153   0.33030  -0.10981
C          C       0.37213   0.89321   0.86560  -0.41733
C          C       0.26978   0.25302   0.32871  -0.18860
C          C       0.20364   0.44833   0.08398  -0.41667
C          C       0.44995   0.60815   0.34255   0.06348
C          C       0.87649   0.25749   0.31490  -0.41834
C          C       0.77538   0.59989   0.10651   0.06434
C          C       0.94677   0.63062   0.28366  -0.41924
C          C       0.06497   0.93833   0.25200  -0.41534
C          C       0.46373   0.67009   0.83398   0.13023
C          C       0.88895   0.67120   0.54898   0.13868
C          C       0.49514   0.71040   0.75396   0.10901
C          C       0.49383   0.76123   0.74740  -0.20733
C          C       0.46420   0.77511   0.82116   0.06410
C          C       0.43353   0.73476   0.90085  -0.13790
C          C       0.43307   0.68335   0.90620  -0.15982
C          C       0.95006   0.68556   0.62758   0.10832
C          C      -0.00096   0.73543   0.60847  -0.19406
C          C       0.99011   0.77082   0.51090   0.06723
C          C       0.90400   0.71409   0.93093  -0.14016
C          C       0.46467   0.43615   0.91720   0.29468
C          C       0.85664   0.66728   0.96105  -0.17840
C          C       0.63177   0.50386   0.63869   0.28750
C          C       0.18614   0.31436   0.43499   0.07063
C          C       0.62841   0.29630   0.12373   0.29053
C          C       0.51763   0.19580   0.85018   0.28902
C          C       0.14951   0.36170   0.53276   0.14607
C          C       0.31149   0.25693   0.94848   0.30187
C          C       0.15331   0.41581   0.53972   0.10180
C          C       0.36430   0.20801   0.64986   0.28145
C          C       0.10712   0.41890   0.56718  -0.19820
C          C       0.49083   0.47809   0.83656  -0.19763
C          C       0.05712   0.37041   0.58943   0.06408
C          C       0.48106   0.52369   0.82808  -0.10094
C          C       0.05452   0.31719   0.58214  -0.13800
C          C       0.44487   0.52792   0.89876   0.03783
C          C       0.09964   0.31287   0.55429  -0.18491
C          C       0.41705   0.48385   0.97384  -0.10109
C          C       0.00759   0.37302   0.61588   0.06902
C          C       0.42691   0.43785   0.98386  -0.20428
C          C       0.98872   0.41093   0.55793  -0.13620
C          C       0.67531   0.48971   0.64237  -0.18210
C          C       0.93862   0.40883   0.57621  -0.17375
C          C       0.72911   0.53079   0.62183  -0.08078
C          C       0.90433   0.36786   0.64970   0.13879
C          C       0.74031   0.58636   0.60066   0.04160
C          C       0.92337   0.33004   0.71060   0.10691
C          C       0.69677   0.60013   0.60341  -0.11735
C          C       0.97493   0.33437   0.69493  -0.20167
C          C       0.64245   0.55910   0.62257  -0.20101
C          C       0.68867   0.32540   0.72949  -0.19680
C          C       0.81677   0.37578   0.58219   0.06253
C          C       0.74453   0.34005   0.71901  -0.09479
C          C       0.51961   0.88210   0.81428  -0.13578
C          C       0.74881   0.33707   0.13901   0.03309
C          C       0.52370   0.93539   0.82232  -0.17678
C          C       0.72224   0.37043   0.09606  -0.11320
C          C       0.47595   0.93984   0.83809   0.14353
C          C       0.66192   0.35004   0.08624  -0.21140
C          C       0.42295   0.88906   0.84536   0.10310
C          C       0.49168   0.15384   0.93155  -0.20747
C          C       0.41949   0.83602   0.83431  -0.20269
C          C       0.48773   0.10106   0.91039  -0.08882
C          C       0.50900   0.08893   0.80898   0.03188
C          C       0.50386   0.03297   0.78539   0.06607
C          C       0.53472   0.13164   0.72898  -0.10817
C          C       0.46734   0.83109   0.82077   0.06154
C          C       0.53916   0.18490   0.74907  -0.18664
C          C       0.09893   0.85789   0.62046  -0.12863
C          C       0.30210   0.18799   0.61772  -0.17920
C          C       0.14398   0.91440   0.62088  -0.17576
C          C       0.25917   0.12816   0.59074  -0.10398
C          C       0.13368   0.94229   0.50370   0.13442
C          C       0.27788   0.08790   0.59664   0.04294
C          C       0.04977   0.87724   0.88069   0.10104
C          C       0.34069   0.10939   0.62669  -0.10473
C          C       0.00420   0.82352   0.89480  -0.19866
C          C       0.38357   0.16911   0.65033  -0.17818
C          C       0.34239   0.33298   0.53918  -0.21969
C          C       0.23371   0.02485   0.56950   0.05365
C          C       0.29556   0.34123   0.53880  -0.08236
C          C       0.04198   0.82646   0.50172   0.06105
C          C       0.23530   0.30592   0.43406   0.03519
C          C       0.53090   0.69980   0.68002  -0.41849
C          C       0.20707   0.23559   0.85211  -0.11148
C          C       0.39147   0.91732   0.44654  -0.41220
C          C       0.25045   0.22250   0.84876  -0.19680
C          C       0.20567   0.46797   0.51404  -0.41684
C          C       0.43779   0.57792   0.89675   0.06653
C          C       0.88636   0.28324   0.78190  -0.42198
C          C       0.79605   0.63102   0.57952   0.06617
C          C       0.96139   0.64825   0.73065  -0.41900
C          C       0.03280   0.91128   0.77537  -0.41738
N          N       0.45849   0.32931   0.12962  -0.89434
N          N       0.82245   0.59620   0.11841  -0.26711
N          N       0.47099   0.26955   0.53279  -0.90020
N          N       0.54979   0.37275   0.47253  -0.90092
N          N       0.18803   0.33616   0.04978  -0.27007
N          N       0.83252   0.32412   0.17215  -0.26993
N          N       0.46329   0.00894   0.32036  -0.26897
N          N       0.15777   0.95640   0.96823  -0.26312
N          N       0.48013   0.65164   0.28625  -0.28601
N          N       0.47606   0.36848   0.61634  -0.89886
N          N       0.83941   0.62396   0.57463  -0.26274
N          N       0.45028   0.23409   0.00691  -0.91038
N          N       0.53621   0.34273   0.98811  -0.90669
N          N       0.19778   0.35904   0.51720  -0.26496
N          N       0.85259   0.36176   0.66999  -0.27155
N          N       0.47949   0.99284   0.85645  -0.27885
N          N       0.17459   0.00178   0.51174  -0.27041
N          N       0.46738   0.62033   0.83692  -0.28633
O          O       0.55720   0.42717   0.18169  -0.37878
O          O       0.49489   0.42566   0.39713  -0.38280
O          O       0.53156   0.27541   0.36543  -0.39358
O          O       0.59076   0.31509   0.63609  -0.39667
O          O       0.37417   0.27809   0.42562  -0.40372
O          O       0.39145   0.22666   0.17998  -0.37984
O          O       0.57656   0.46299   0.65770  -0.38514
O          O       0.47651   0.39160   0.91974  -0.38556
O          O       0.52091   0.24942   0.85787  -0.38162
O          O       0.56933   0.27463   0.12763  -0.41126
O          O       0.35377   0.24440   0.93000  -0.40657
O          O       0.40832   0.26926   0.68793  -0.38551

