data_crystal

_audit_creation_method 'AiiDA-DDEC plugin'

_cell_length_a        26.73763
_cell_length_b        27.25552
_cell_length_c         9.81848

_cell_angle_alpha     80.62992
_cell_angle_beta     74.42983
_cell_angle_gamma     119.16488

_symmetry_space_group_name_Hall 'P 1'
_symmetry_space_group_name_H-M  'P 1'

loop_
_symmetry_equiv_pos_as_xyz
 'x,y,z'

loop_
_atom_site_label
_atom_site_type_symbol
_atom_site_fract_x
_atom_site_fract_y
_atom_site_fract_z
_atom_site_charge
P          P       0.62769   0.44092   0.02576   1.31455
P          P       0.73331   0.53456   0.01922   1.35011
P          P       0.65996   0.55971   0.44067   1.32894
P          P       0.66161   0.46063   0.51558   1.33530
P          P       0.75560   0.56745   0.50794   1.34944
P          P       0.65161   0.55190   0.94106   1.33329
H          H       0.56551   0.69835   0.28006   0.11502
H          H       0.00826   0.93722   0.58385   0.11014
H          H       0.19002   0.54182   0.26627   0.10366
H          H       0.75027   0.08620   0.91996   0.10910
H          H       0.75281   0.32779   0.95643   0.11387
H          H       0.50959   0.43932   0.20649   0.13312
H          H       0.73889   0.16953   0.93546   0.11200
H          H       0.74084   0.41348   0.91863   0.12501
H          H       0.51948   0.41409   0.58754   0.12403
H          H       0.39972   0.40233   0.24236   0.11532
H          H       0.84373   0.44092   0.18173   0.11557
H          H       0.72648   0.99315   0.04818   0.10635
H          H       0.35331   0.56454   0.33188   0.11835
H          H       0.04987   0.58547   0.34331   0.06351
H          H       0.22865   0.41950   0.30917   0.11462
H          H       0.01894   0.65220   0.29917   0.11249
H          H       0.10301   0.54480   0.23908   0.10735
H          H       0.85742   0.79200   0.49276   0.10808
H          H       0.96170   0.86676   0.47493   0.06867
H          H       0.76247   0.65523   0.09196   0.12828
H          H       0.13102   0.40134   0.29623   0.11143
H          H       0.95685   0.36399   0.24126   0.12183
H          H       0.40805   0.19296   0.34018   0.10270
H          H       0.71015   0.22215   0.01027   0.07035
H          H       0.64608   0.26374   0.30520   0.10548
H          H       0.56761   0.60749   0.28719   0.13001
H          H       0.88395   0.59329   0.03612   0.12492
H          H       0.13098   0.87746   0.47669   0.12008
H          H       0.73943   0.91106   0.01409   0.12026
H          H       0.18115   0.12225   0.47682   0.10817
H          H       0.26375   0.56691   0.31862   0.10654
H          H       0.77224   0.47123   0.15453   0.13402
H          H       0.57913   0.84232   0.38238   0.11148
H          H       0.26066   0.02410   0.58215   0.10862
H          H       0.71169   0.66615   0.95010   0.13709
H          H       0.34074   0.11008   0.61645   0.11212
H          H       0.97520   0.69726   0.97644   0.11399
H          H       0.21957   0.97497   0.45462   0.10495
H          H       0.54737   0.50124   0.41128   0.13552
H          H       0.65104   0.36016   0.25898   0.13434
H          H       0.93823   0.67334   0.29661   0.13719
H          H       0.05286   0.37060   0.23615   0.10664
H          H       0.09468   0.03230   0.57536   0.10315
H          H       0.44040   0.47375   0.44580   0.09929
H          H       0.26072   0.20819   0.51982   0.12054
H          H       0.37134   0.16767   0.72641   0.06126
H          H       0.60839   0.11448   0.29933   0.11529
H          H       0.42153   0.32969   0.58722   0.11818
H          H       0.60806   0.02409   0.28780   0.10053
H          H       0.49945   0.28130   0.35170   0.13349
H          H       0.71826   0.76088   0.94706   0.10949
H          H       0.57115   0.92629   0.41287   0.11137
H          H       0.61512   0.80110   0.26690   0.06973
H          H       0.32012   0.42231   0.22430   0.07458
H          H       0.64498   0.75074   0.60528   0.10492
H          H       0.06975   0.90993   0.81031   0.09972
H          H       0.16448   0.54997   0.91191   0.10603
H          H       0.70669   0.04905   0.58004   0.10508
H          H       0.70711   0.29526   0.66410   0.10291
H          H       0.52817   0.55028   0.80899   0.12466
H          H       0.70779   0.13916   0.58874   0.10952
H          H       0.71155   0.39011   0.61850   0.13450
H          H       0.51488   0.39619   0.96380   0.14519
H          H       0.41982   0.52006   0.84681   0.10024
H          H       0.88040   0.46290   0.44380   0.11868
H          H       0.75437   0.01835   0.41840   0.11238
H          H       0.33376   0.55919   0.87382   0.11635
H          H       0.98953   0.48689   0.84626   0.06115
H          H       0.23102   0.41243   0.74319   0.11707
H          H       0.94600   0.51530   0.69959   0.10396
H          H       0.06896   0.54246   0.91500   0.11325
H          H       0.85396   0.76000   0.02486   0.10606
H          H       0.96355   0.83028   0.96666   0.06807
H          H       0.77415   0.68649   0.53956   0.13525
H          H       0.14031   0.41124   0.72526   0.10644
H          H       0.98504   0.42964   0.70141   0.11568
H          H       0.46791   0.20659   0.74170   0.11204
H          H       0.68188   0.20323   0.61318   0.07141
H          H       0.56350   0.20891   0.00689   0.11534
H          H       0.63152   0.65226   0.62082   0.13193
H          H       0.88335   0.62731   0.66208   0.12213
H          H       0.06610   0.81852   0.21738   0.11665
H          H       0.76255   0.93348   0.38647   0.11869
H          H       0.17215   0.07904   0.92136   0.10822
H          H       0.23548   0.53768   0.85391   0.10914
H          H       0.79977   0.48451   0.43764   0.12868
H          H       0.61279   0.86258   0.79194   0.11138
H          H       0.24805   0.99057   0.10519   0.10458
H          H       0.74884   0.69756   0.30229   0.14083
H          H       0.32790   0.08582   0.11474   0.10917
H          H       0.96709   0.73298   0.61508   0.11255
H          H       0.14574   0.91634   0.22025   0.09296
H          H       0.56556   0.62099   0.02136   0.12624
H          H       0.55043   0.29472   0.97809   0.12298
H          H       0.87526   0.54651   0.67135   0.12464
H          H       0.07435   0.43227   0.73595   0.10530
H          H       0.14841   0.00702   0.81397   0.09504
H          H       0.45496   0.58414   0.05807   0.11289
H          H       0.25232   0.17455   0.93215   0.12086
H          H       0.33619   0.14968   0.23648   0.05973
H          H       0.54508   0.05832   0.01111   0.11742
H          H       0.42336   0.30780   0.95252   0.11381
H          H       0.55636   0.97355  -0.00265   0.10871
H          H       0.56915   0.29191   0.72378   0.12631
H          H       0.74556   0.78839   0.30313   0.11370
H          H       0.60094   0.94476   0.82212   0.10786
H          H       0.67052   0.83316   0.69099   0.07040
H          H       0.33492   0.48682   0.75985   0.06954
C          C       0.35702   0.46989   0.15877   0.08002
C          C       0.64964   0.79919   0.30402   0.07738
C          C       0.28863   0.48942   0.08868   0.19261
C          C       0.67884   0.88230   0.89718   0.19762
C          C       0.30645   0.53189   0.41873  -0.16760
C          C       0.25567   0.53253   0.41184  -0.12566
C          C       0.17488   0.46747   0.07368   0.05519
C          C       0.17499   0.43396   0.19938  -0.12529
C          C       0.23034   0.44415   0.20712  -0.16778
C          C       0.71006   0.91967   0.97051  -0.16099
C          C       0.54347   0.53186   0.10747   0.28746
C          C       0.70280   0.96569   0.98851  -0.13103
C          C       0.65833   0.64822   0.29491   0.28546
C          C       0.66293   0.97539   0.93678   0.04364
C          C       0.81847   0.61912   0.07325   0.29090
C          C       0.61364   0.92857   0.40514  -0.12863
C          C       0.86427   0.57979   0.37270   0.29622
C          C       0.61831   0.88122   0.38702  -0.17042
C          C       0.51161   0.34255   0.15856   0.27909
C          C       0.38310   0.21167   0.66311   0.08951
C          C       0.68141   0.37953   0.43556   0.29196
C          C       0.52874   0.57340   0.06853  -0.20036
C          C       0.30544   0.16527   0.57583   0.20305
C          C       0.46740   0.55280   0.08952  -0.08269
C          C       0.25985   0.16732   0.53422  -0.15737
C          C       0.42016   0.49097   0.14931   0.04189
C          C       0.21512   0.11867   0.51081  -0.13283
C          C       0.43571   0.45028   0.19349  -0.10152
C          C       0.21386   0.06564   0.52700   0.05182
C          C       0.49722   0.47045   0.17283  -0.18539
C          C       0.26057   0.06448   0.56548  -0.12697
C          C       0.70950   0.69896   0.29660  -0.20519
C          C       0.30530   0.11289   0.58848  -0.17791
C          C       0.70737   0.74896   0.29725  -0.08591
C          C       0.16429   0.01170   0.51445   0.05582
C          C       0.65527   0.74917   0.29293   0.04187
C          C       0.10394  -0.00027   0.54703  -0.11815
C          C       0.60584   0.69848   0.28440  -0.10441
C          C       0.05477   0.94577   0.55277  -0.17928
C          C       0.60669   0.64764   0.28746  -0.18626
C          C       0.06385   0.90062   0.52804   0.20556
C          C       0.87813   0.63013   0.03377  -0.18342
C          C       0.12426   0.91261   0.49400  -0.15552
C          C       0.92870   0.68796   0.00019  -0.08782
C          C       0.17343   0.96713   0.48413  -0.12483
C          C       0.91838   0.76969   0.54936   0.03690
C          C       0.86360   0.75609   0.52866  -0.10888
C          C       0.96791   0.83142   0.52057   0.07921
C          C       0.80925   0.66541   0.06562  -0.17597
C          C       0.14645   0.51959   0.36516  -0.12266
C          C       0.81077   0.48162   0.05548  -0.22113
C          C       0.09728   0.52138   0.34876  -0.17919
C          C       0.85068   0.46431   0.07044  -0.07698
C          C       0.00582   0.45168   0.07428   0.20592
C          C       0.95453   0.55581   0.37655   0.03572
C          C       0.00263   0.40427   0.16780  -0.16010
C          C       0.97078   0.61525   0.33120  -0.11419
C          C       0.05696   0.40842   0.16442  -0.12705
C          C       0.92603   0.62757   0.32998  -0.18931
C          C       0.66310   0.34469   0.34625  -0.18982
C          C       0.00171   0.54531   0.39113   0.07410
C          C       0.66065   0.29190   0.37208  -0.08866
C          C       0.11687   0.46043   0.07120   0.04781
C          C       0.65872   0.26252   0.98386   0.03846
C          C       0.70490   0.07952   0.94217  -0.12474
C          C       0.70837   0.32025   0.96129  -0.10339
C          C       0.69841   0.12665   0.95077  -0.17127
C          C       0.70205   0.36851   0.94084  -0.18563
C          C       0.64049   0.11964   0.97522   0.19569
C          C       0.50837   0.36879   0.61701  -0.18379
C          C       0.62917   0.09912   0.36145  -0.15921
C          C       0.45364   0.32166   0.61870  -0.08338
C          C       0.62870   0.04823   0.35664  -0.12987
C          C       0.40973   0.24461   0.14573   0.03534
C          C       0.43125   0.23751   0.25874  -0.09695
C          C       0.66811   0.21384   0.99308   0.07195
C          C       0.48185   0.28614   0.26617  -0.19084
C          C       0.65445   0.02371   0.95586   0.06313
C          C       0.36494   0.48933   0.65366   0.07846
C          C       0.67949   0.81401   0.78189   0.08117
C          C       0.29869   0.48917   0.53911   0.20052
C          C       0.67274   0.88285   0.37712   0.19377
C          C       0.28878   0.52342   0.96372  -0.16801
C          C       0.23336   0.51180   0.95466  -0.13604
C          C       0.19420   0.48916   0.52055   0.04542
C          C       0.18686   0.44621   0.64001  -0.12781
C          C       0.23796   0.44634   0.65056  -0.18450
C          C       0.72090   0.93257   0.39214  -0.16178
C          C       0.54473   0.52987   0.60506   0.29864
C          C       0.71589   0.97974   0.41083  -0.13330
C          C       0.66860   0.65273   0.79050   0.29329
C          C       0.66237   0.97912   0.41662   0.06241
C          C       0.82483   0.65141   0.60142   0.30725
C          C       0.63104   0.93735   0.86549  -0.13239
C          C       0.82226   0.51459   0.91180   0.29710
C          C       0.63859   0.89161   0.84595  -0.17221
C          C       0.54954   0.35730   0.65423   0.29041
C          C       0.35785   0.19116   0.14152   0.07731
C          C       0.64483   0.35829   0.94790   0.29451
C          C       0.51962   0.50572   0.50565  -0.22464
C          C       0.29339   0.13624   0.03236   0.19972
C          C       0.45954   0.48986   0.52585  -0.08832
C          C       0.25022   0.13371   0.97241  -0.15938
C          C       0.42359   0.49652   0.64584   0.03632
C          C       0.20560   0.08006   0.96602  -0.12635
C          C       0.44782   0.51614   0.75117  -0.10850
C          C       0.20238   0.02679   0.01764   0.05542
C          C       0.50841   0.53324   0.73073  -0.19340
C          C       0.24744   0.03025   0.07130  -0.12605
C          C       0.69563   0.68409   0.87824  -0.21393
C          C       0.29223   0.08375   0.07789  -0.19206
C          C       0.70024   0.73735   0.87445  -0.08586
C          C       0.15391   0.96922   0.01620   0.05208
C          C       0.68040   0.76113   0.77905   0.03272
C          C       0.13021   0.96607   0.90377  -0.12852
C          C       0.65798   0.73119   0.68351  -0.10863
C          C       0.08540   0.91128   0.90197  -0.18297
C          C       0.65095   0.67659   0.69036  -0.19702
C          C       0.06199   0.85740   0.01517   0.20206
C          C       0.87853   0.66378   0.62452  -0.18852
C          C       0.08537   0.86011   0.12815  -0.16526
C          C       0.92482   0.72239   0.59872  -0.08765
C          C       0.13008   0.91498   0.12879  -0.13174
C          C       0.92018   0.73491   0.00192   0.04180
C          C       0.86051   0.72345   0.02798  -0.10779
C          C       0.97010   0.79349   0.99114   0.07902
C          C       0.81651   0.69711   0.55498  -0.19276
C          C       0.11945   0.50812   0.98077  -0.12471
C          C       0.84762   0.52048   0.40993  -0.19689
C          C       0.06550   0.50410   0.98191  -0.18132
C          C       0.89254   0.50868   0.41307  -0.08636
C          C       0.03878   0.49052   0.47140   0.20054
C          C       0.90173   0.47863   0.94330   0.02883
C          C       0.03083   0.45565   0.60804  -0.17209
C          C       0.90869   0.50672   0.79943  -0.10424
C          C       0.08113   0.45633   0.62561  -0.13483
C          C       0.86930   0.52454   0.78280  -0.19980
C          C       0.59423   0.30101   0.97370  -0.19452
C          C       0.95040   0.47011   0.95441   0.07570
C          C       0.60152   0.25361   0.99013  -0.09096
C          C       0.14053   0.48860   0.50474   0.05000
C          C       0.67640   0.27318   0.48719   0.03805
C          C       0.68567   0.06361   0.51669  -0.13213
C          C       0.69516   0.30931   0.57446  -0.10572
C          C       0.68568   0.11428   0.52294  -0.16893
C          C       0.69811   0.36284   0.54910  -0.21647
C          C       0.65816   0.13363   0.44268   0.20237
C          C       0.49070   0.35161   0.04631  -0.21100
C          C       0.58971   0.06360   0.99171  -0.15169
C          C       0.43984   0.30236   0.04033  -0.08460
C          C       0.59643   0.01659   0.98292  -0.13456
C          C       0.43841   0.26267   0.66363   0.03966
C          C       0.47974   0.25222   0.70530  -0.10444
C          C       0.67311   0.21708   0.51515   0.07784
C          C       0.53597   0.29936   0.69721  -0.19646
C          C       0.65814   0.03005   0.43187   0.04888
N          N       0.63971   0.49584   0.42832  -0.89825
N          N       0.67790   0.46536   0.09807  -0.89523
N          N       0.34747   0.50619   0.08568  -0.29739
N          N       0.68219   0.83757   0.35799  -0.30919
N          N       0.71805   0.58003   0.95012  -0.90427
N          N       0.35128   0.21685   0.58992  -0.30512
N          N       0.01690   0.84299   0.54546  -0.29672
N          N       0.95071   0.44718   0.08026  -0.29262
N          N       0.62938   0.16479   0.97841  -0.31123
N          N       0.61842   0.48679   0.92971  -0.89824
N          N       0.71414   0.49603   0.57510  -0.90443
N          N       0.35247   0.49148   0.53550  -0.28925
N          N       0.68715   0.83585   0.88776  -0.30300
N          N       0.72506   0.59988   0.45161  -0.91404
N          N       0.33827   0.19138   0.03464  -0.29498
N          N       0.01675   0.80051   0.02168  -0.29049
N          N       0.98861   0.49358   0.46395  -0.28872
N          N       0.65963   0.18634   0.42786  -0.30022
O          O       0.65784   0.59616   0.29753  -0.38223
O          O       0.60562   0.55348   0.08641  -0.41311
O          O       0.82110   0.59421   0.36660  -0.40526
O          O       0.76565   0.55873   0.13172  -0.39158
O          O       0.56374   0.38885   0.17073  -0.38519
O          O       0.68307   0.43212   0.39940  -0.38072
O          O       0.65677   0.59598   0.79910  -0.36610
O          O       0.60684   0.55367   0.58444  -0.39411
O          O       0.79035   0.54058   0.88621  -0.39603
O          O       0.77909   0.59073   0.63269  -0.38850
O          O       0.60398   0.40297   0.66068  -0.38429
O          O       0.63882   0.40652   0.91455  -0.37767

