data_crystal

_audit_creation_method 'AiiDA-DDEC plugin'

_cell_length_a        24.57975
_cell_length_b        22.38525
_cell_length_c        11.21397

_cell_angle_alpha     89.50985
_cell_angle_beta     94.85403
_cell_angle_gamma     113.82995

_symmetry_space_group_name_Hall 'P 1'
_symmetry_space_group_name_H-M  'P 1'

loop_
_symmetry_equiv_pos_as_xyz
 'x,y,z'

loop_
_atom_site_label
_atom_site_type_symbol
_atom_site_fract_x
_atom_site_fract_y
_atom_site_fract_z
_atom_site_charge
P          P       0.54979   0.27017   0.33250   1.32365
P          P       0.54145   0.37172   0.44888   1.32716
P          P       0.44471   0.28263   0.32189   1.34124
P          P       0.54941   0.26554   0.83551   1.32850
P          P       0.52608   0.36355   0.93378   1.34745
P          P       0.43647   0.25770   0.82620   1.32962
H          H       0.26564   0.92267   0.04410   0.07636
H          H       0.37316   0.46038   0.05131   0.10466
H          H       0.41488   0.38451   0.97715   0.12824
H          H       0.44281   0.94634   0.10147   0.06118
H          H       0.05583   0.86362   0.34584   0.11618
H          H       0.42044   0.17514   0.59815   0.13216
H          H       0.66450   0.52803   0.28626   0.13300
H          H       0.28928   0.84164   0.47585   0.10285
H          H       0.87369   0.56738   0.35638   0.10525
H          H       0.72721   0.49128   0.16408   0.10218
H          H       0.51322   0.99699   0.42810   0.10339
H          H       0.94444   0.48394   0.32752   0.10600
H          H       0.76894   0.59928   0.35782   0.11369
H          H       0.26847   0.57337   0.37379   0.11703
H          H       0.03573   0.57874   0.95438   0.09767
H          H       0.45860   0.11811   0.18961   0.12313
H          H       0.57350   0.47872   0.21221   0.11913
H          H       0.85779   0.47002   0.29573   0.06153
H          H       0.12792   0.95606   0.23890   0.11688
H          H       0.37561   0.54187   0.18877   0.06893
H          H       0.12988   0.63992   0.06963   0.10603
H          H       0.12885   0.65835   0.22159   0.09647
H          H       0.66594   0.37492   0.40496   0.12535
H          H       0.44530   0.81434   0.39189   0.11241
H          H       0.33127   0.71087   0.28240   0.09805
H          H       0.32707   0.42188   0.38964   0.11521
H          H       0.47547   0.91330   0.27114   0.10843
H          H       0.23500   0.84716   0.19981   0.11466
H          H       0.24872   0.04938   0.30704   0.09869
H          H       0.92919   0.50110   0.94441   0.10497
H          H       0.08770   0.49232   0.08606   0.11314
H          H       0.24443   0.07537   0.10498   0.10903
H          H       0.97412   0.63157   0.45812   0.10467
H          H       0.56193   0.09703   0.30861   0.14017
H          H       0.21644   0.64568   0.31677   0.10181
H          H       0.45612   0.62678   0.54360   0.11582
H          H       0.00665   0.77278   0.18070   0.10123
H          H       0.23925   0.32229   0.05591   0.11063
H          H       0.37348   0.63989   0.19610   0.10387
H          H       0.41265   0.69756   0.63053   0.10817
H          H       0.32040   0.94223   0.35582   0.11524
H          H       0.13851   0.42031   0.14378   0.11184
H          H       0.21781   0.40969   0.12028   0.06420
H          H       0.62368   0.41977   0.09338   0.13132
H          H       0.65041   0.28747   0.05718   0.13539
H          H       0.90724   0.70892   0.07986   0.11294
H          H       0.30783   0.26665   0.05945   0.12114
H          H       0.33670   0.75722   0.05978   0.10752
H          H       0.27537   0.72396   0.95097   0.10620
H          H       0.77468   0.43559   0.39419   0.10691
H          H       0.76086   0.34894   0.04537   0.11555
H          H       0.53167   0.55488   0.28993   0.11590
H          H       0.31535   0.16461   0.26737   0.12181
H          H       0.39581   0.36653   0.39335   0.13510
H          H       0.16280   0.75498   0.30369   0.09828
H          H       0.09599   0.74491   0.93194   0.10570
H          H       0.07129   0.80378   0.97442   0.11035
H          H       0.82946   0.63185   0.99241   0.06983
H          H       0.04897   0.56164   0.33738   0.10177
H          H       0.51874   0.21619   0.07835   0.13801
H          H       0.20798   0.96234   0.45658   0.07013
H          H       0.36154   0.40054   0.65780   0.09103
H          H       0.41926   0.33934   0.58923   0.12427
H          H       0.46088   0.94366   0.59055   0.06459
H          H       0.13522   0.90804   0.94024   0.11053
H          H       0.31072   0.18731   0.04529   0.11464
H          H       0.63689   0.53509   0.77904   0.12601
H          H       0.26705   0.82089   0.86919   0.10167
H          H       0.89326   0.59740   0.89248   0.11011
H          H       0.74263   0.50895   0.70111   0.10154
H          H       0.49695   0.99596   0.94472   0.10161
H          H       0.91732   0.55284   0.68635   0.10325
H          H       0.74237   0.60520   0.84810   0.11323
H          H       0.18939   0.46735   0.91516   0.10771
H          H       0.05874   0.46537   0.55375   0.11235
H          H       0.47407   0.11206   0.68524   0.11024
H          H       0.57978   0.51381   0.62626   0.12179
H          H       0.86083   0.45847   0.77700   0.06570
H          H       0.21237   0.98974   0.82508   0.11783
H          H       0.35670   0.49607   0.73966   0.07258
H          H       0.13303   0.61592   0.56999   0.10230
H          H       0.12616   0.62680   0.72262   0.10365
H          H       0.66706   0.37634   0.89423   0.12843
H          H       0.43733   0.80738   0.89454   0.10537
H          H       0.27702   0.64851   0.78732   0.10403
H          H       0.28591   0.35465   0.88774   0.10535
H          H       0.48015   0.91062   0.78666   0.11027
H          H       0.18729   0.84204   0.55847   0.10849
H          H       0.35137   0.99730   0.92991   0.10722
H          H       0.94955   0.39742   0.52815   0.12208
H          H       0.17612   0.54558   0.50328   0.09718
H          H       0.35217   0.06052   0.64211   0.10679
H          H       0.99499   0.66777   0.98051   0.10500
H          H       0.55663   0.09481   0.83190   0.13752
H          H       0.13979   0.54305   0.87254   0.10403
H          H       0.47059   0.65910   0.97800   0.12190
H          H       0.01736   0.79563   0.68318   0.10977
H          H       0.23922   0.28930   0.51897   0.11778
H          H       0.32267   0.57904   0.70879   0.10842
H          H       0.42391   0.72854   0.05889   0.10785
H          H       0.31024   0.92424   0.75961   0.11210
H          H       0.22359   0.46867   0.54410   0.10884
H          H       0.19978   0.36321   0.59613   0.07851
H          H       0.63911   0.43589   0.62865   0.13083
H          H       0.64723   0.27587   0.55703   0.13746
H          H       0.91560   0.72581   0.59548   0.11493
H          H       0.30860   0.23318   0.53944   0.13567
H          H       0.36283   0.76918   0.60710   0.11144
H          H       0.29708   0.73521   0.51091   0.10398
H          H       0.77581   0.43411   0.87693   0.10890
H          H       0.75678   0.33584   0.53791   0.11636
H          H       0.52337   0.57495   0.70539   0.11609
H          H       0.41578   0.10777   0.86729   0.12962
H          H       0.35337   0.29650   0.90918   0.12284
H          H       0.11293   0.75953   0.67747   0.09906
H          H       0.07929   0.71090   0.41982   0.10701
H          H       0.05222   0.76472   0.47883   0.10707
H          H       0.85153   0.63399   0.51350   0.06833
H          H       0.02537   0.62172   0.70696   0.09689
H          H       0.52560   0.21223   0.56957   0.13491
C          C       0.64536   0.47889   0.45346   0.29486
C          C       0.49559   0.42654   0.09498   0.28845
C          C       0.66703   0.47213   0.57011  -0.22434
C          C       0.24282   0.41506   0.20855   0.06903
C          C       0.70719   0.50120   0.08027  -0.08483
C          C       0.74196   0.55431   0.01333   0.03613
C          C       0.74028   0.56483   0.41842  -0.10041
C          C       0.68182   0.52468   0.37731  -0.19274
C          C       0.52993   0.47587   0.17862  -0.18023
C          C       0.83754   0.44005   0.21374   0.08403
C          C       0.50656   0.51779   0.22107  -0.07926
C          C       0.44252   0.99147   0.13925   0.07250
C          C       0.44901   0.51168   0.17785   0.04113
C          C       0.25888   0.96554   0.07465   0.09319
C          C       0.41716   0.46459   0.08713  -0.10255
C          C       0.20906   0.49302   0.25891   0.19426
C          C       0.43986   0.42147   0.04569  -0.19830
C          C       0.22905   0.55614   0.31014  -0.14902
C          C       0.54133   0.15999   0.95100   0.28846
C          C       0.19986   0.59669   0.27663  -0.15651
C          C       0.65235   0.32968   0.22959   0.29987
C          C       0.14967   0.57521   0.19310   0.10962
C          C       0.51438   0.16796   0.05101  -0.20959
C          C       0.12836   0.51099   0.14631  -0.13234
C          C       0.48086   0.11302   0.11289  -0.06903
C          C       0.15709   0.47038   0.17881  -0.17641
C          C       0.47480   0.05056   0.07567   0.03122
C          C       0.01540   0.55958   0.03682  -0.14984
C          C       0.50259   0.04437   0.97464  -0.10304
C          C       0.04970   0.57761   0.14716   0.10117
C          C       0.54318   0.09927   0.39194  -0.19355
C          C       0.02257   0.55002   0.25110  -0.13010
C          C       0.67860   0.32025   0.12942  -0.18372
C          C       0.96327   0.50602   0.24551  -0.16614
C          C       0.73969   0.35450   0.12341  -0.08704
C          C       0.92830   0.48874   0.13463   0.20137
C          C       0.77479   0.39783   0.21747   0.03664
C          C       0.95554   0.51562   0.03036  -0.15343
C          C       0.74766   0.40343   0.31968  -0.09759
C          C       0.11633   0.61765   0.15616  -0.24641
C          C       0.68656   0.36977   0.32641  -0.21824
C          C       0.41740   0.62747   0.36433   0.19971
C          C       0.42818   0.64486   0.48710  -0.15961
C          C       0.40365   0.68471   0.53538  -0.14264
C          C       0.36832   0.70919   0.46327   0.09967
C          C       0.35759   0.69149   0.34083  -0.14030
C          C       0.38138   0.65140   0.29175  -0.18190
C          C       0.33003   0.85692   0.43033  -0.14744
C          C       0.36451   0.81976   0.44129   0.10581
C          C       0.41732   0.84164   0.38349  -0.14332
C          C       0.43392   0.89681   0.31390  -0.19068
C          C       0.39858   0.93322   0.30071   0.19300
C          C       0.34702   0.91335   0.36289  -0.16086
C          C       0.34612   0.75744   0.51213  -0.24540
C          C       0.35598   0.31226   0.22682   0.29839
C          C       0.88274   0.63265   0.21096   0.19196
C          C       0.37044   0.17623   0.43324   0.29282
C          C       0.90323   0.61276   0.31898  -0.15628
C          C       0.36051   0.35502   0.32150  -0.20048
C          C       0.95966   0.64902   0.37550  -0.14576
C          C       0.32199   0.38664   0.31871  -0.07902
C          C       0.99817   0.70732   0.32696   0.11245
C          C       0.27848   0.37661   0.22239   0.03013
C          C       0.97782   0.72764   0.21994  -0.14677
C          C       0.27319   0.33162   0.13064  -0.11350
C          C       0.92121   0.69135   0.16265  -0.16337
C          C       0.31138   0.29962   0.13273  -0.20326
C          C       0.09409   0.85915   0.31107  -0.14320
C          C       0.38262   0.14672   0.53614  -0.18653
C          C       0.10290   0.80139   0.32887   0.11151
C          C       0.28223   0.08324   0.05379  -0.08960
C          C       0.15406   0.79845   0.28704  -0.14660
C          C       0.29406   0.04853   0.48085   0.03890
C          C       0.19463   0.85008   0.22689  -0.16833
C          C       0.28559   0.07717   0.37254  -0.10227
C          C       0.18442   0.90700   0.20588   0.19195
C          C       0.32331   0.14157   0.34866  -0.21110
C          C       0.13407   0.91086   0.25137  -0.16756
C          C       0.42063   0.55042   0.22914   0.07770
C          C       0.05923   0.74554   0.39380  -0.24524
C          C       0.80335   0.59678   0.05673   0.07759
C          C       0.62332   0.47361   0.93148   0.29675
C          C       0.50220   0.42310   0.60980   0.28689
C          C       0.64867   0.46095   0.04044  -0.22188
C          C       0.22653   0.36952   0.68262   0.06938
C          C       0.72521   0.51328   0.61069  -0.08122
C          C       0.76239   0.56067   0.53677   0.03113
C          C       0.71593   0.56562   0.90347  -0.10459
C          C       0.65692   0.52614   0.86344  -0.18920
C          C       0.53226   0.48984   0.63627  -0.18837
C          C       0.83708   0.42794   0.69702   0.08593
C          C       0.50070   0.52371   0.67782  -0.08306
C          C       0.45618   0.98745   0.62282   0.08345
C          C       0.43891   0.49158   0.68863   0.04656
C          C       0.24712   0.98833   0.52020   0.08610
C          C       0.40928   0.42560   0.65163  -0.10205
C          C       0.20624   0.45895   0.73177   0.19401
C          C       0.44087   0.39097   0.61324  -0.17327
C          C       0.18489   0.48339   0.82437  -0.15424
C          C       0.54424   0.15855   0.43200   0.30029
C          C       0.15752   0.52640   0.79993  -0.13776
C          C       0.65118   0.32312   0.72569   0.30365
C          C       0.15254   0.54833   0.68339   0.10430
C          C       0.52146   0.16464   0.53874  -0.21755
C          C       0.17766   0.52747   0.59336  -0.13768
C          C       0.49334   0.10879   0.60311  -0.07501
C          C       0.20395   0.48326   0.61598  -0.17349
C          C       0.48881   0.04764   0.56240   0.03115
C          C       0.02778   0.48507   0.58148  -0.13836
C          C       0.51589   0.04413   0.45855  -0.09346
C          C       0.05049   0.54821   0.63380   0.09805
C          C       0.53594   0.09886   0.91159  -0.19369
C          C       0.00958   0.57230   0.66901  -0.14472
C          C       0.67606   0.31065   0.62594  -0.18043
C          C       0.94835   0.53355   0.65794  -0.18316
C          C       0.73686   0.34415   0.61566  -0.08525
C          C       0.92607   0.46930   0.61035   0.19883
C          C       0.77353   0.38969   0.70519   0.03296
C          C       0.96659   0.44652   0.56752  -0.16038
C          C       0.74770   0.39962   0.80628  -0.09466
C          C       0.11755   0.58937   0.65218  -0.24265
C          C       0.68657   0.36716   0.81692  -0.21306
C          C       0.40012   0.61414   0.83839   0.19601
C          C       0.42788   0.65679   0.93785  -0.16640
C          C       0.40146   0.69556   0.98240  -0.15039
C          C       0.34748   0.69461   0.92778   0.10454
C          C       0.31913   0.65071   0.83085  -0.13947
C          C       0.34454   0.61068   0.78699  -0.16804
C          C       0.31409   0.84050   0.85275  -0.15081
C          C       0.34938   0.80686   0.89260   0.10267
C          C       0.40927   0.83299   0.86664  -0.14209
C          C       0.43333   0.89061   0.80438  -0.18714
C          C       0.39797   0.92447   0.76551   0.19832
C          C       0.33790   0.89874   0.79128  -0.16704
C          C       0.32439   0.74453   0.96362  -0.24342
C          C       0.33679   0.26394   0.72424   0.30594
C          C       0.89754   0.65537   0.73676   0.19047
C          C       0.36747   0.15430   0.95557   0.30462
C          C       0.92075   0.64104   0.84719  -0.16381
C          C       0.32816   0.29492   0.82438  -0.21173
C          C       0.97813   0.68041   0.89546  -0.14650
C          C       0.28987   0.32675   0.81255  -0.08924
C          C       0.01417   0.73628   0.83687   0.10740
C          C       0.25851   0.32705   0.70179   0.03329
C          C       0.99041   0.75183   0.72871  -0.14542
C          C       0.26368   0.29041   0.60519  -0.10833
C          C       0.93306   0.71225   0.67893  -0.17332
C          C       0.30277   0.25912   0.61549  -0.18033
C          C       0.14656   0.89327   0.85687  -0.14890
C          C       0.31851   0.14510   0.01983  -0.19787
C          C       0.11886   0.82759   0.81809   0.09775
C          C       0.34461   0.08342   0.56008  -0.07835
C          C       0.13421   0.81022   0.70971  -0.14934
C          C       0.29447   0.02900   0.02567   0.03877
C          C       0.17588   0.85654   0.64200  -0.18277
C          C       0.34152   0.03858   0.95436  -0.08605
C          C       0.20440   0.92207   0.68336   0.20158
C          C       0.37819   0.10104   0.91834  -0.19233
C          C       0.18944   0.93938   0.79252  -0.16733
C          C       0.40533   0.52417   0.74149   0.08067
C          C       0.07598   0.77800   0.89519  -0.24151
C          C       0.82249   0.60563   0.58139   0.08151
N          N       0.44575   0.59009   0.31980  -0.29241
N          N       0.82454   0.59207   0.16439  -0.29690
N          N       0.24274   0.45608   0.28905  -0.29521
N          N       0.86769   0.44521   0.12230  -0.30299
N          N       0.41676   0.99067   0.23548  -0.27723
N          N       0.22104   0.96309   0.15004  -0.30766
N          N       0.48171   0.24384   0.27716  -0.88500
N          N       0.56381   0.31982   0.93908  -0.92462
N          N       0.48073   0.35634   0.36852  -0.90649
N          N       0.43210   0.58160   0.79146  -0.29176
N          N       0.83996   0.61114   0.69446  -0.30711
N          N       0.23184   0.41416   0.76077  -0.29674
N          N       0.86508   0.42719   0.60480  -0.29843
N          N       0.42215   0.98396   0.70685  -0.28337
N          N       0.25012   0.97221   0.63044  -0.27450
N          N       0.48136   0.22918   0.78004  -0.89624
N          N       0.56932   0.31865   0.44787  -0.91492
N          N       0.46271   0.33393   0.85804  -0.90575
O          O       0.39537   0.28150   0.21573  -0.37344
O          O       0.40470   0.24408   0.42817  -0.42367
O          O       0.58701   0.44204   0.40480  -0.38697
O          O       0.51897   0.37996   0.06968  -0.39392
O          O       0.57551   0.21343   0.88388  -0.38792
O          O       0.58968   0.30041   0.22233  -0.38573
O          O       0.38088   0.23905   0.72488  -0.37217
O          O       0.40576   0.22012   0.94295  -0.41003
O          O       0.56478   0.43521   0.88301  -0.38717
O          O       0.53497   0.38555   0.58658  -0.39285
O          O       0.57145   0.21224   0.36031  -0.38517
O          O       0.58874   0.29166   0.72351  -0.38334

