data_crystal

_audit_creation_method 'AiiDA-DDEC plugin'

_cell_length_a        18.67196
_cell_length_b        18.32570
_cell_length_c        10.91514

_cell_angle_alpha     92.18528
_cell_angle_beta     103.75865
_cell_angle_gamma     120.66442

_symmetry_space_group_name_Hall 'P 1'
_symmetry_space_group_name_H-M  'P 1'

loop_
_symmetry_equiv_pos_as_xyz
 'x,y,z'

loop_
_atom_site_label
_atom_site_type_symbol
_atom_site_fract_x
_atom_site_fract_y
_atom_site_fract_z
_atom_site_charge
P          P       0.54751   0.38473   0.45461   1.34884
P          P       0.53737   0.52688   0.47304   1.33455
P          P       0.41845   0.36402   0.03982   1.34354
P          P       0.54680   0.37478   0.94775   1.33846
P          P       0.53050   0.51242   0.97299   1.33761
P          P       0.41992   0.38312   0.54111   1.34966
H          H       0.70118   0.42411   0.38800   0.13323
H          H       0.50307   0.98020   0.17013   0.08301
H          H       0.98862   0.31681   0.95161   0.07198
H          H       0.98444   0.88058   0.32976   0.09315
H          H       0.45570   0.20336   0.45548   0.13604
H          H       0.26385   0.28301   0.23175   0.11896
H          H       0.42463   0.05423   0.41343   0.11087
H          H       0.68931   0.66407   0.28742   0.13629
H          H       0.22962   0.47776   0.14540   0.11782
H          H       0.14587   0.13044   0.23023   0.11140
H          H       0.84965   0.77200   0.36961   0.10757
H          H       0.40267   0.18956   0.09138   0.12645
H          H       0.34728   0.45605   0.12157   0.13951
H          H       0.02017   0.53099   0.17755   0.09513
H          H       0.35510   0.67111   0.46979   0.11592
H          H       0.38639   0.81078   0.41591   0.08744
H          H       0.59996   0.27454   0.18153   0.12925
H          H       0.85215   0.45831   0.42199   0.10514
H          H       0.49466   0.76953   0.19283   0.11142
H          H       0.17093   0.28397   0.28612   0.13401
H          H       0.56592   0.12434   0.13456   0.11140
H          H       0.91225   0.57533   0.19713   0.11721
H          H       0.30227   0.06296   0.61989   0.11271
H          H       0.38651   0.55456   0.47401   0.12443
H          H       0.73602   0.60973   0.50876   0.13992
H          H       0.75877   0.53477   0.16948   0.13154
H          H       0.06031   0.31738   0.30004   0.11245
H          H       0.89401   0.72793   0.59850   0.11892
H          H       0.14583   0.94886   0.61311   0.08802
H          H       0.52696   0.65206   0.19837   0.13736
H          H       0.66476   0.27738   0.98548   0.12191
H          H       0.51621   0.97638   0.67228   0.08392
H          H       0.01024   0.38849   0.39551   0.08160
H          H       0.96646   0.94497   0.79605   0.08542
H          H       0.46596   0.19885   0.95318   0.13647
H          H       0.24144   0.29361   0.68765   0.12603
H          H       0.43935   0.05101   0.91551   0.11180
H          H       0.66579   0.75880   0.70855   0.14186
H          H       0.23288   0.49469   0.65801   0.11433
H          H       0.12819   0.13844   0.68077   0.10608
H          H       0.82318   0.87523   0.80157   0.11699
H          H       0.41242   0.21629   0.62210   0.12421
H          H       0.34498   0.46326   0.64214   0.13124
H          H       0.00005   0.47238   0.74121   0.09019
H          H       0.34839   0.66394   0.96253   0.11719
H          H       0.38817   0.80729   0.91213   0.08817
H          H       0.59522   0.26624   0.66102   0.13299
H          H       0.81780   0.31914   0.00737   0.11093
H          H       0.50224   0.76332   0.70300   0.10776
H          H       0.15698   0.22134   0.84703   0.13490
H          H       0.56749   0.11814   0.62111   0.11595
H          H       0.88212   0.45196   0.82433   0.10484
H          H       0.28529   0.03822   0.08223   0.11096
H          H       0.37344   0.54265   0.96796   0.12628
H          H       0.70477   0.65598   0.90047   0.13454
H          H       0.73018   0.41701   0.79059   0.13098
H          H       0.03894   0.24369   0.86774   0.11334
H          H       0.86562   0.76372   0.98235   0.10736
H          H       0.13753   0.93354   0.09129   0.09062
H          H       0.52744   0.64067   0.70966   0.13373
C          C       0.68892   0.65707   0.08968   0.29683
C          C       0.46028   0.59909   0.33891   0.29211
C          C       0.75620   0.66822   0.57240  -0.20860
C          C       0.82693   0.74091   0.04863  -0.09699
C          C       0.86805   0.77696   0.18087   0.04849
C          C       0.81846   0.74600   0.26702  -0.11409
C          C       0.72865   0.68586   0.22191  -0.19990
C          C       0.25851   0.33941   0.97715   0.30683
C          C       0.48934   0.65735   0.25657  -0.19144
C          C       0.33889   0.24387   0.16395   0.28510
C          C       0.47084   0.72182   0.25319  -0.09199
C          C       0.27994   0.41087   0.06455  -0.21854
C          C       0.42369   0.72890   0.33174   0.03938
C          C       0.21387   0.42264   0.07801  -0.07885
C          C       0.39226   0.66705   0.40952  -0.10040
C          C       0.12628   0.36355   0.00532   0.03713
C          C       0.40978   0.60161   0.41281  -0.20470
C          C       0.12255   0.34920   0.37547  -0.10458
C          C       0.53135   0.24779   0.32247   0.29868
C          C       0.18459   0.33038   0.36668  -0.19649
C          C       0.70401   0.40417   0.07538   0.28541
C          C       0.26692   0.22804   0.20190  -0.18518
C          C       0.48181   0.18636   0.38852  -0.20677
C          C       0.20238   0.14400   0.20043  -0.09638
C          C       0.46352   0.10262   0.36322  -0.08592
C          C       0.20771   0.07405   0.15657   0.05168
C          C       0.49337   0.07859   0.27165   0.03894
C          C       0.28039   0.09153   0.11691  -0.10994
C          C       0.54302   0.14184   0.20670  -0.10850
C          C       0.34652   0.17629   0.12113  -0.18684
C          C       0.56278   0.22605   0.23251  -0.19801
C          C       0.41362   0.80244   0.34169   0.04102
C          C       0.71927   0.34259   0.02982  -0.20203
C          C       0.95692   0.85237   0.22685   0.01561
C          C       0.80416   0.36562   0.04263  -0.08829
C          C       0.87517   0.44965   0.10318   0.04793
C          C       0.85821   0.51024   0.14967  -0.10748
C          C       0.05317   0.37045   0.01006   0.04621
C          C       0.77256   0.48811   0.13510  -0.18193
C          C       0.96376   0.47035   0.11691   0.03410
C          C       0.47798   0.99268   0.24435   0.03973
C          C       0.13630   0.98523   0.14264   0.01651
C          C       0.69309   0.68012   0.60081   0.31007
C          C       0.45514   0.58839   0.84362   0.29718
C          C       0.73756   0.68133   0.00268  -0.19384
C          C       0.84390   0.73403   0.62314  -0.08440
C          C       0.86887   0.81093   0.70201   0.04115
C          C       0.80419   0.81709   0.73786  -0.10076
C          C       0.71649   0.75246   0.68697  -0.20500
C          C       0.26500   0.37161   0.46264   0.29896
C          C       0.48973   0.64813   0.76541  -0.19532
C          C       0.33376   0.26271   0.65963   0.28710
C          C       0.47498   0.71509   0.76126  -0.09238
C          C       0.28263   0.43118   0.56756  -0.21866
C          C       0.42600   0.72335   0.83520   0.04220
C          C       0.21939   0.44885   0.57618  -0.08353
C          C       0.38815   0.65963   0.90758  -0.09937
C          C       0.13816   0.40829   0.48002   0.04464
C          C       0.40201   0.59164   0.91154  -0.20000
C          C       0.10661   0.29072   0.92209  -0.10559
C          C       0.53424   0.24149   0.81153   0.29367
C          C       0.17167   0.27815   0.90839  -0.19209
C          C       0.70629   0.41590   0.58719   0.29538
C          C       0.25380   0.24252   0.67413  -0.17866
C          C       0.48936   0.18108   0.88277  -0.21689
C          C       0.19174   0.15700   0.67148  -0.09600
C          C       0.47375   0.09835   0.86031  -0.09106
C          C       0.20843   0.09098   0.65500   0.05196
C          C       0.50198   0.07418   0.76640   0.03990
C          C       0.28814   0.11277   0.63498  -0.10364
C          C       0.54593   0.13583   0.69502  -0.10344
C          C       0.35074   0.19854   0.63706  -0.18310
C          C       0.56214   0.21901   0.71688  -0.20007
C          C       0.41902   0.79887   0.84349   0.04287
C          C       0.74076   0.43050   0.48329  -0.21985
C          C       0.95468   0.88961   0.73263   0.04308
C          C       0.82556   0.45019   0.50262  -0.08484
C          C       0.87733   0.45660   0.62489   0.04207
C          C       0.84275   0.44648   0.72896  -0.10697
C          C       0.06791   0.42180   0.48057   0.03451
C          C       0.75767   0.42638   0.71088  -0.19368
C          C       0.96248   0.46724   0.64369   0.03369
C          C       0.48949   0.98927   0.74372   0.04078
C          C       0.14222   0.00196   0.65451   0.03984
N          N       0.44211   0.86022   0.27068  -0.18755
N          N       0.99817   0.88803   0.14470  -0.14977
N          N       0.05720   0.43376   0.07684  -0.19146
N          N       0.45556   0.33200   0.48108  -0.90991
N          N       0.97213   0.41412   0.05654  -0.18598
N          N       0.43943   0.93242   0.30742  -0.19162
N          N       0.58236   0.48073   0.42884  -0.90264
N          N       0.07116   0.96875   0.18486  -0.14910
N          N       0.47301   0.46668   0.06668  -0.91792
N          N       0.45363   0.85769   0.77642  -0.18639
N          N       0.01244   0.89988   0.67624  -0.19639
N          N       0.06772   0.46701   0.57509  -0.18054
N          N       0.45469   0.31679   0.97192  -0.91014
N          N       0.98932   0.46406   0.54556  -0.17421
N          N       0.45037   0.93014   0.80794  -0.19012
N          N       0.57730   0.47009   0.92349  -0.89951
N          N       0.07872   0.98691   0.70012  -0.18357
N          N       0.47908   0.48588   0.56751  -0.91795
O          O       0.32306   0.34851   0.44442  -0.39936
O          O       0.40301   0.33210   0.17186  -0.38960
O          O       0.59764   0.61128   0.04446  -0.39476
O          O       0.48345   0.53717   0.34224  -0.38839
O          O       0.54812   0.33199   0.33385  -0.37887
O          O       0.61810   0.37738   0.07046  -0.41356
O          O       0.31884   0.32341   0.94965  -0.39314
O          O       0.39833   0.35127   0.67072  -0.38773
O          O       0.60414   0.62704   0.53823  -0.38986
O          O       0.47323   0.52302   0.84623  -0.39447
O          O       0.55271   0.32628   0.82736  -0.37144
O          O       0.61848   0.38520   0.57499  -0.40562

