data_crystal

_audit_creation_method 'AiiDA-DDEC plugin'

_cell_length_a        17.32315
_cell_length_b        36.91847
_cell_length_c         8.02512

_cell_angle_alpha     91.17875
_cell_angle_beta     129.64004
_cell_angle_gamma     89.90066

_symmetry_space_group_name_Hall 'P 1'
_symmetry_space_group_name_H-M  'P 1'

loop_
_symmetry_equiv_pos_as_xyz
 'x,y,z'

loop_
_atom_site_label
_atom_site_type_symbol
_atom_site_fract_x
_atom_site_fract_y
_atom_site_fract_z
_atom_site_charge
H          H       0.55414   0.64294   0.01768   0.07840
H          H       0.56781   0.35614   0.04732   0.07842
H          H       0.44455   0.64526   0.46633   0.08023
H          H       0.43220   0.35797   0.46326   0.07539
H          H       0.06683   0.14130   0.01767   0.07257
H          H       0.03846   0.85690   0.93789   0.07901
H          H       0.95170   0.14422   0.51931   0.07827
H          H       0.92250   0.85870   0.44721   0.07117
H          H       0.33597   0.12119   0.06226   0.12622
H          H       0.32584   0.87742   0.05394   0.12606
H          H       0.67276   0.12271   0.43666   0.12602
H          H       0.66554   0.87727   0.44357   0.12702
H          H       0.81220   0.62260   0.02963   0.12764
H          H       0.83050   0.37833   0.07588   0.12758
H          H       0.17903   0.62256   0.43116   0.12721
H          H       0.17229   0.37686   0.44519   0.12691
H          H       0.09097   0.18771   0.46278   0.12085
H          H       0.08934   0.81023   0.47963   0.12339
H          H       0.91717   0.18909   0.03946   0.12383
H          H       0.90943   0.81177   0.04349   0.12166
H          H       0.60452   0.68779   0.49591   0.11802
H          H       0.59459   0.31161   0.49233   0.12108
H          H       0.40808   0.68707   0.03804   0.12191
H          H       0.40684   0.31077   0.01933   0.12007
H          H       0.41127   0.17894   0.05558   0.11842
H          H       0.40559   0.82013   0.05625   0.11989
H          H       0.59383   0.17991   0.44111   0.11841
H          H       0.59319   0.81869   0.45255   0.12019
H          H       0.89524   0.67991   0.04103   0.12258
H          H       0.91257   0.32138   0.08047   0.11933
H          H       0.09816   0.67910   0.43737   0.12080
H          H       0.09481   0.31901   0.44716   0.12015
H          H       0.55627   0.64324   0.48490   0.07274
H          H       0.54399   0.35743   0.48550   0.07689
H          H       0.42810   0.64230   0.94227   0.07504
H          H       0.44775   0.35591  -0.00003   0.07480
H          H       0.06654   0.14390   0.54464   0.07675
H          H       0.03406   0.85684   0.46747   0.08016
H          H       0.94366   0.14303   0.95799   0.08018
H          H       0.92785   0.85591   0.93674   0.07894
H          H       0.32763   0.12375   0.56796   0.12721
H          H       0.31124   0.87828   0.54614   0.12723
H          H       0.68131   0.12355   0.93330   0.12773
H          H       0.67522   0.87713   0.93926   0.12771
H          H       0.82208   0.62492   0.51875   0.12679
H          H       0.82094   0.37737   0.56156   0.12685
H          H       0.16539   0.62375   0.91446   0.12629
H          H       0.17949   0.37399   0.95826   0.12677
H          H       0.10977   0.18528   0.00134   0.11969
H          H       0.09957   0.81204   0.98505   0.11990
H          H       0.89691   0.18902   0.50119   0.12194
H          H       0.89679   0.81533   0.51305   0.11938
H          H       0.58147   0.68790   0.94161   0.12271
H          H       0.59371   0.31184   0.95879   0.12349
H          H       0.40582   0.69035   0.51513   0.12284
H          H       0.40761   0.31332   0.54306   0.12072
H          H       0.40692   0.18146   0.57042   0.12136
H          H       0.39342   0.82182   0.54406   0.12131
H          H       0.60147   0.18104   0.93264   0.12181
H          H       0.59227   0.81991   0.92980   0.12203
H          H       0.89821   0.68345   0.52133   0.11873
H          H       0.89781   0.31990   0.55193   0.12088
H          H       0.08920   0.68200   0.91855   0.12082
H          H       0.10419   0.31581   0.96310   0.12267
C          C       0.53449   0.58508   0.99033  -0.03308
C          C       0.54493   0.41374   0.02030  -0.03265
C          C       0.45674   0.58721   0.46616  -0.02962
C          C       0.45156   0.41559   0.48495  -0.03113
C          C       0.05237   0.08409   0.02091  -0.03590
C          C       0.04016   0.91366   0.00055  -0.03420
C          C       0.96031   0.08649   0.50150  -0.03675
C          C       0.94629   0.91596   0.48005  -0.03579
C          C       0.58224   0.61774   0.00114   0.07074
C          C       0.59453   0.38157   0.03100   0.07194
C          C       0.41103   0.61989   0.46289   0.07317
C          C       0.40332   0.38323   0.47656   0.07002
C          C       0.10122   0.11579   0.02667   0.06170
C          C       0.08303   0.88183   0.98680   0.05729
C          C       0.91303   0.11879   0.49492   0.05934
C          C       0.89440   0.88411   0.46106   0.06328
C          C       0.30386   0.14739   0.04917  -0.14105
C          C       0.29417   0.85094   0.03857  -0.13887
C          C       0.70408   0.14931   0.45228  -0.14083
C          C       0.69849   0.85128   0.45646  -0.13999
C          C       0.78202   0.64916   0.01785  -0.13545
C          C       0.79795   0.35171   0.05416  -0.13302
C          C       0.20966   0.64936   0.44862  -0.13195
C          C       0.20521   0.35062   0.46384  -0.13573
C          C       0.21763   0.14812   0.03296   0.20794
C          C       0.20639   0.84971   0.01633   0.20505
C          C       0.79126   0.15092   0.47228   0.20486
C          C       0.78454   0.85117   0.47220   0.20527
C          C       0.69337   0.65067   0.99178   0.20206
C          C       0.70733   0.34982   0.02033   0.20558
C          C       0.29702   0.65175   0.46998   0.20128
C          C       0.29402   0.34995   0.49033   0.20551
C          C       0.17530   0.18200   0.01243  -0.19166
C          C       0.16478   0.81555   0.99520  -0.18419
C          C       0.83196   0.18527   0.49190  -0.18357
C          C       0.82954   0.81775   0.49622  -0.19465
C          C       0.65103   0.68473   0.96805  -0.18582
C          C       0.66394   0.31551   0.98849  -0.18175
C          C       0.33851   0.68623   0.49667  -0.18201
C          C       0.33841   0.31620   0.51820  -0.18544
C          C       0.21709   0.21393   0.01033  -0.01556
C          C       0.20826   0.78381  -0.00378  -0.01398
C          C       0.78858   0.21680   0.49415  -0.01507
C          C       0.78881   0.78536   0.49659  -0.01574
C          C       0.69868   0.71646   0.98211  -0.01347
C          C       0.71079   0.28403  -0.00257  -0.01543
C          C       0.29279   0.71738   0.49610  -0.01470
C          C       0.29389   0.28412   0.51108  -0.01515
C          C       0.30300   0.21293   0.02649  -0.02735
C          C       0.29615   0.78523   0.01964  -0.03302
C          C       0.70227   0.21488   0.47657  -0.02941
C          C       0.70281   0.78579   0.48028  -0.02775
C          C       0.78782   0.71461   0.01076  -0.02731
C          C       0.80060   0.28618   0.02890  -0.02344
C          C       0.20551   0.71469   0.47410  -0.02320
C          C       0.20525   0.28519   0.48470  -0.02472
C          C       0.34555   0.17924   0.04548  -0.07732
C          C       0.33824   0.81925   0.04013  -0.07923
C          C       0.66046   0.18076   0.45457  -0.07792
C          C       0.65846   0.81907   0.46096  -0.07535
C          C       0.82814   0.68064   0.02578  -0.07468
C          C       0.84353   0.32036   0.05754  -0.07757
C          C       0.16479   0.68037   0.45122  -0.07525
C          C       0.16199   0.31882   0.46267  -0.07687
C          C       0.15977   0.25153   0.48738   0.33790
C          C       0.15844   0.74738   0.48320   0.33750
C          C       0.84752   0.25311   0.02275   0.33746
C          C       0.83715   0.74791   0.01638   0.33771
C          C       0.66135   0.75181   0.49000   0.33488
C          C       0.65702   0.24808   0.48539   0.33602
C          C       0.34318   0.75146   0.02307   0.33662
C          C       0.34574   0.24669   0.01710   0.33656
C          C       0.49424   0.51768   0.98415  -0.13713
C          C       0.49745   0.48081   0.99520  -0.14167
C          C       0.00796   0.01760   0.02622  -0.13613
C          C       0.00722   0.98067   0.03013  -0.13838
C          C       0.54388   0.58611   0.49104  -0.03248
C          C       0.53933   0.41505   0.51218  -0.03635
C          C       0.44749   0.58481   0.96567  -0.03835
C          C       0.45806   0.41348  -0.00349  -0.03278
C          C       0.04761   0.08614   0.52705  -0.03078
C          C       0.03401   0.91469   0.50728  -0.03175
C          C       0.96443   0.08523   0.99286  -0.03368
C          C       0.95339   0.91368   0.97723  -0.03272
C          C       0.59194   0.61797   0.49595   0.06226
C          C       0.58423   0.38253   0.51215   0.06391
C          C       0.39929   0.61719   0.95575   0.06706
C          C       0.41214   0.38099   0.99217   0.06182
C          C       0.09491   0.11840   0.53202   0.07182
C          C       0.07556   0.88183   0.49796   0.07207
C          C       0.91570   0.11815   0.97606   0.07508
C          C       0.90332   0.88129   0.96142   0.07055
C          C       0.29461   0.15005   0.54807  -0.13489
C          C       0.28178   0.85140   0.53233  -0.12964
C          C       0.71401   0.15004   0.95323  -0.13260
C          C       0.70664   0.85058   0.95693  -0.13555
C          C       0.79183   0.65108   0.51434  -0.14056
C          C       0.78932   0.35083   0.54564  -0.13954
C          C       0.20009   0.64997   0.93890  -0.14153
C          C       0.21172   0.34782   0.97158  -0.14043
C          C       0.20481   0.15091   0.51780   0.20417
C          C       0.19481   0.84904   0.51244   0.20254
C          C       0.80391   0.15159   0.98398   0.20468
C          C       0.79604   0.84897   0.98591   0.20222
C          C       0.70774   0.65132   0.50554   0.20628
C          C       0.70261   0.34942   0.52728   0.20385
C          C       0.29015   0.65058   0.97023   0.20723
C          C       0.29812   0.34736   0.98857   0.20426
C          C       0.16044   0.18466   0.48881  -0.18684
C          C       0.15512   0.81447   0.49252  -0.17917
C          C       0.84757   0.18577   0.01276  -0.18314
C          C       0.83953   0.81498   0.01549  -0.18697
C          C       0.66750   0.68507   0.49747  -0.18719
C          C       0.66025   0.31521   0.50401  -0.18806
C          C       0.33757   0.68429   0.00792  -0.18896
C          C       0.34122   0.31365   0.00835  -0.18897
C          C       0.20584   0.21659   0.49793  -0.01518
C          C       0.20127   0.78327   0.49501  -0.01446
C          C       0.80180   0.21750   0.00571  -0.01319
C          C       0.79260   0.78332   0.00478  -0.01526
C          C       0.70856   0.71736   0.49706  -0.01352
C          C       0.70323   0.28350   0.50141  -0.01356
C          C       0.29422   0.71647   0.00347  -0.01343
C          C       0.29922   0.28151   0.00806  -0.01428
C          C       0.29511   0.21546   0.52699  -0.02559
C          C       0.28797   0.78598   0.51455  -0.02479
C          C       0.71266   0.21549   0.97713  -0.02612
C          C       0.70301   0.78520   0.97399  -0.02386
C          C       0.79314   0.71683   0.50786  -0.03125
C          C       0.78948   0.28533   0.51868  -0.02865
C          C       0.20440   0.71537   0.97215  -0.03058
C          C       0.21312   0.28238   0.99154  -0.02839
C          C       0.33874   0.18181   0.55124  -0.07234
C          C       0.32734   0.82038   0.53235  -0.07626
C          C       0.66950   0.18155   0.95131  -0.07509
C          C       0.66097   0.81915   0.95136  -0.07376
C          C       0.83389   0.68331   0.51613  -0.07613
C          C       0.83181   0.31929   0.54077  -0.07607
C          C       0.15804   0.68188   0.94052  -0.07556
C          C       0.17012   0.31586   0.97384  -0.07403
C          C       0.16922   0.24858  -0.00341   0.33703
C          C       0.16093   0.74891   0.98161   0.33837
C          C       0.83435   0.25213   0.50861   0.33754
C          C       0.83766   0.75099   0.50840   0.33472
C          C       0.65462   0.75197   0.97201   0.33870
C          C       0.66598   0.24854   0.98336   0.34016
C          C       0.33607   0.75321   0.50968   0.33786
C          C       0.34071   0.24912   0.52436   0.33693
C          C       0.49802   0.51949   0.49036  -0.14131
C          C       0.49869   0.48265   0.50249  -0.13764
C          C       0.00323   0.01917   0.51431  -0.13465
C          C       0.00228   0.98227   0.51893  -0.14099
S          S       0.40250   0.54613   0.44621   0.15795
S          S       0.40316   0.45780   0.47088   0.15443
S          S       0.58718   0.54355   0.01158   0.15547
S          S       0.59399   0.45569   0.03402   0.15921
S          S       0.90799   0.04469   0.48032   0.14282
S          S       0.90581   0.95850   0.49038   0.14709
S          S       0.10454   0.04161   0.05680   0.14349
S          S       0.10235   0.95511   0.06400   0.14089
S          S       0.39768   0.54261   0.94812   0.14722
S          S       0.40487   0.45522   0.97202   0.14609
S          S       0.59334   0.54353   0.51588   0.14553
S          S       0.59526   0.45664   0.54523   0.14632
S          S       0.91324   0.04423   0.98525   0.16340
S          S       0.91150   0.95534   0.99442   0.15838
S          S       0.09974   0.04426   0.55253   0.15879
S          S       0.09756   0.95542   0.56393   0.15723
N          N       0.66666   0.38268   0.02125  -0.28784
N          N       0.65434   0.61737   0.99152  -0.28957
N          N       0.33135   0.38349   0.48687  -0.29292
N          N       0.33598   0.61893   0.46295  -0.28948
N          N       0.16869   0.88261   0.02619  -0.29341
N          N       0.17998   0.11487   0.03878  -0.30139
N          N       0.82119   0.88475   0.46801  -0.30050
N          N       0.83055   0.11792   0.46876  -0.29902
N          N       0.66615   0.38273   0.53654  -0.29752
N          N       0.67049   0.61765   0.50728  -0.30014
N          N       0.33412   0.38096   0.98258  -0.29846
N          N       0.32622   0.61705   0.96290  -0.30106
N          N       0.15695   0.88204   0.52108  -0.28444
N          N       0.16639   0.11761   0.52023  -0.29047
N          N       0.83530   0.88202   0.98398  -0.29332
N          N       0.84362   0.11826   0.98578  -0.28653
O          O       0.08960   0.25206   0.49125  -0.36864
O          O       0.08932   0.74493   0.48970  -0.36376
O          O       0.91840   0.25493   0.02174  -0.36442
O          O       0.90926   0.74655   0.01937  -0.36546
O          O       0.59261   0.75164   0.49868  -0.37116
O          O       0.58620   0.24674   0.48696  -0.37089
O          O       0.41712   0.75176   0.03212  -0.36875
O          O       0.41464   0.24649   0.00897  -0.37232
O          O       0.09798   0.24858  -0.00293  -0.37289
O          O       0.09078   0.74830   0.98566  -0.37356
O          O       0.90461   0.25343   0.50504  -0.37050
O          O       0.90952   0.75160   0.50995  -0.37035
O          O       0.58294   0.75345   0.97037  -0.36633
O          O       0.59650   0.24676   0.98908  -0.36515
O          O       0.40640   0.75539   0.50700  -0.36330
O          O       0.41163   0.24835   0.52305  -0.36585

