data_crystal

_audit_creation_method 'AiiDA-DDEC plugin'

_cell_length_a        16.96158
_cell_length_b        37.05680
_cell_length_c         8.08013

_cell_angle_alpha     93.35829
_cell_angle_beta     132.05484
_cell_angle_gamma     89.76813

_symmetry_space_group_name_Hall 'P 1'
_symmetry_space_group_name_H-M  'P 1'

loop_
_symmetry_equiv_pos_as_xyz
 'x,y,z'

loop_
_atom_site_label
_atom_site_type_symbol
_atom_site_fract_x
_atom_site_fract_y
_atom_site_fract_z
_atom_site_charge
H          H       0.53637   0.63889   0.91898   0.06532
H          H       0.57183   0.35695   0.07063   0.07017
H          H       0.41642   0.64146   0.41773   0.06875
H          H       0.47155   0.35954   0.57075   0.06919
H          H       0.05800   0.14277   0.02880   0.07115
H          H       0.05625   0.85774   0.00752   0.06577
H          H       0.93662   0.14289   0.42944   0.06999
H          H       0.92905   0.85849   0.46590   0.06643
H          H       0.41181   0.75326   0.03095   0.10848
H          H       0.42165   0.24914   0.10680   0.11022
H          H       0.56981   0.75195   0.40449   0.11161
H          H       0.59758   0.24866   0.45762   0.10869
H          H       0.91840   0.25107   0.08907   0.11385
H          H       0.90584   0.74743   0.01668   0.10790
H          H       0.11113   0.25121   0.50681   0.10904
H          H       0.06824   0.74640   0.40193   0.11145
H          H       0.33109   0.12474   0.07231   0.12891
H          H       0.33476   0.87719   0.06648   0.12825
H          H       0.67213   0.12477   0.41841   0.12898
H          H       0.65504   0.87610   0.42023   0.12865
H          H       0.82705   0.62327   0.02151   0.12976
H          H       0.83899   0.37569   0.09314   0.12940
H          H       0.14585   0.62230   0.38101   0.12832
H          H       0.18423   0.37558   0.48577   0.12823
H          H       0.11728   0.18643   0.52917   0.10781
H          H       0.07307   0.81228   0.43122   0.11161
H          H       0.91362   0.18517   0.06697   0.11098
H          H       0.90676   0.81263   0.01340   0.10827
H          H       0.56812   0.68641   0.40717   0.11059
H          H       0.60256   0.31415   0.49091   0.10798
H          H       0.41120   0.68730   0.01167   0.11053
H          H       0.42486   0.31481   0.10886   0.10929
H          H       0.41794   0.18194   0.10410   0.10908
H          H       0.41169   0.82102   0.05195   0.10496
H          H       0.59431   0.18118   0.42669   0.10614
H          H       0.57042   0.81899   0.39582   0.10752
H          H       0.90477   0.68015   0.02233   0.10281
H          H       0.91994   0.31869   0.10269   0.11100
H          H       0.06606   0.67892   0.37934   0.10829
H          H       0.10800   0.31862   0.48957   0.10571
H          H       0.54540   0.64327   0.49081   0.07098
H          H       0.56403   0.35870   0.52485   0.06542
H          H       0.42342   0.64116   0.89996   0.07076
H          H       0.44159   0.35650   0.00113   0.06935
H          H       0.04660   0.14032   0.43602   0.06592
H          H       0.06073   0.85699   0.55070   0.07183
H          H       0.92069   0.14116   0.93130   0.06908
H          H       0.95008   0.85717   0.00305   0.06649
H          H       0.41166   0.75046   0.57533   0.11339
H          H       0.41081   0.24975   0.52279   0.10667
H          H       0.59767   0.74958   0.97239   0.10854
H          H       0.57255   0.24847   0.90589   0.11213
H          H       0.91879   0.25373   0.54725   0.10821
H          H       0.91310   0.75131   0.57782   0.11093
H          H       0.07262   0.24971   0.90910   0.11165
H          H       0.09831   0.74797   0.96790   0.10811
H          H       0.33606   0.12549   0.53477   0.12697
H          H       0.33289   0.87439   0.58842   0.12888
H          H       0.64775   0.12400   0.88973   0.12845
H          H       0.67499   0.87357   0.96227   0.12802
H          H       0.82216   0.62675   0.54103   0.12793
H          H       0.84265   0.37750   0.57872   0.12816
H          H       0.16836   0.62443   0.91649   0.12895
H          H       0.16581   0.37428   0.95257   0.12861
H          H       0.07051   0.18395   0.91074   0.11045
H          H       0.10023   0.81308   0.99307   0.10951
H          H       0.91928   0.18813   0.53231   0.10924
H          H       0.91271   0.81692   0.56832   0.11023
H          H       0.60379   0.68464  -0.00135   0.10828
H          H       0.57718   0.31390   0.92891   0.10944
H          H       0.40922   0.68467   0.55432   0.11112
H          H       0.40851   0.31434   0.51110   0.10697
H          H       0.41096   0.18253   0.52944   0.10220
H          H       0.41382   0.81747   0.59579   0.11050
H          H       0.56808   0.18119   0.88227   0.10635
H          H       0.59632   0.81666   0.95890   0.10577
H          H       0.91023   0.68409   0.57760   0.11007
H          H       0.91899   0.32097   0.56658   0.10541
H          H       0.09390   0.68101   0.93450   0.10651
H          H       0.07770   0.31708   0.91655   0.10932
C          C       0.53875   0.58356   0.97610  -0.03592
C          C       0.55012   0.41414   0.04686  -0.03186
C          C       0.44218   0.58478   0.45263  -0.04095
C          C       0.46882   0.41554   0.52132  -0.03056
C          C       0.03634   0.08505   0.00028  -0.03237
C          C       0.05023   0.91503   0.03086  -0.03594
C          C       0.95859   0.08578   0.46450  -0.02821
C          C       0.95423   0.91576   0.50207  -0.03593
C          C       0.58427   0.61513   0.96974   0.06028
C          C       0.59933   0.38197   0.05439   0.06964
C          C       0.38982   0.61645   0.43607   0.05980
C          C       0.42492   0.38346   0.52759   0.05985
C          C       0.08502   0.11748   0.00843   0.07224
C          C       0.09652   0.88295   0.02980   0.06430
C          C       0.90890   0.11838   0.44936   0.07371
C          C       0.90127   0.88379   0.48378   0.06516
C          C       0.29545   0.15059   0.04853  -0.14161
C          C       0.30273   0.85056   0.05067  -0.14984
C          C       0.70684   0.15127   0.44135  -0.14972
C          C       0.69027   0.85023   0.44186  -0.14563
C          C       0.79639   0.64943   0.01640  -0.15374
C          C       0.80287   0.34938   0.06785  -0.14542
C          C       0.18271   0.64872   0.41075  -0.14941
C          C       0.21537   0.34946   0.49224  -0.14967
C          C       0.19680   0.15062  -0.00196   0.20320
C          C       0.21322   0.84935   0.03371   0.20232
C          C       0.79967   0.15248   0.46949   0.19940
C          C       0.78751   0.85038   0.48680   0.20659
C          C       0.70863   0.64978   0.00560   0.20472
C          C       0.70658   0.34873   0.02702   0.20024
C          C       0.27947   0.64961   0.45368   0.20458
C          C       0.30313   0.34914   0.50270   0.19792
C          C       0.14723   0.18317   0.95690  -0.23048
C          C       0.16814   0.81565   0.00617  -0.23475
C          C       0.84706   0.18606   0.50409  -0.22805
C          C       0.83721   0.81782   0.52734  -0.23685
C          C       0.66672   0.68289   0.99521  -0.23712
C          C       0.65387   0.31546   0.97499  -0.22888
C          C       0.33249   0.68297   0.50835  -0.24219
C          C       0.34488   0.31608   0.51226  -0.22847
C          C       0.19545   0.21646   0.97911   0.08022
C          C       0.21027   0.78304   0.00061   0.08189
C          C       0.80337   0.21878   0.50296   0.08090
C          C       0.79088   0.78455   0.51146   0.08377
C          C       0.70747   0.71583   0.99184   0.08149
C          C       0.69825   0.28245   0.98345   0.08119
C          C       0.28814   0.71586   0.50281   0.08536
C          C       0.30328   0.28313   0.51246   0.07852
C          C       0.29727   0.21633   0.03973   0.06969
C          C       0.30172   0.78461   0.02129   0.06677
C          C       0.70916   0.21727   0.47262   0.07001
C          C       0.69074   0.78464   0.45795   0.06584
C          C       0.79695   0.71517   0.00572   0.06739
C          C       0.79882   0.28332   0.03853   0.06906
C          C       0.18794   0.71470   0.44932   0.06635
C          C       0.21528   0.28370   0.50359   0.06862
C          C       0.34350   0.18228   0.06791  -0.12621
C          C       0.34482   0.81949   0.04292  -0.12609
C          C       0.66372   0.18247   0.44401  -0.12499
C          C       0.64394   0.81862   0.42847  -0.12634
C          C       0.83874   0.68088   0.01628  -0.12702
C          C       0.84709   0.31788   0.07294  -0.12655
C          C       0.13909   0.68001   0.41003  -0.12701
C          C       0.17356   0.31798   0.49385  -0.12752
C          C       0.17529   0.25106   0.50641  -0.19107
C          C       0.14295   0.74717   0.43893  -0.18734
C          C       0.84354   0.25063   0.05154  -0.19057
C          C       0.83923   0.74780   0.00890  -0.19007
C          C       0.64370   0.75184   0.43834  -0.18756
C          C       0.66695   0.24962   0.47454  -0.19125
C          C       0.34387   0.75225   0.01855  -0.18755
C          C       0.34619   0.24922   0.06678  -0.18848
C          C       0.49907   0.51763  -0.00023  -0.13624
C          C       0.50213   0.48102   0.01873  -0.13432
C          C      -0.00102   0.01821   0.00688  -0.13781
C          C       0.00305   0.98153   0.01721  -0.13944
C          C       0.53236   0.58569   0.47956  -0.03093
C          C       0.55911   0.41596   0.54821  -0.03490
C          C       0.44702   0.58421   0.94313  -0.02976
C          C       0.46020   0.41405   0.02087  -0.03494
C          C       0.04990   0.08505   0.49567  -0.03443
C          C       0.04505   0.91461   0.53200  -0.03018
C          C       0.94565   0.08460   0.97147  -0.04204
C          C       0.95912   0.91440   0.00092  -0.02990
C          C       0.57807   0.61845   0.48287   0.06973
C          C       0.60463   0.38373   0.54574   0.06245
C          C       0.39743   0.61699   0.92628   0.07500
C          C       0.41161   0.38174   0.01340   0.06530
C          C       0.09510   0.11666   0.48864   0.05494
C          C       0.09110   0.88163   0.53792   0.06798
C          C       0.89370   0.11658   0.95248   0.05809
C          C       0.91195   0.88179   0.99317   0.06495
C          C       0.30527   0.15154   0.53077  -0.15046
C          C       0.29658   0.84802   0.56116  -0.14568
C          C       0.68549   0.15024   0.92004  -0.15004
C          C       0.70604   0.84744   0.96880  -0.14673
C          C       0.78840   0.65276   0.52454  -0.14153
C          C       0.80929   0.35099   0.56077  -0.14610
C          C       0.20225   0.65091   0.93616  -0.15042
C          C       0.20018   0.34831   0.97144  -0.14384
C          C       0.21926   0.15168   0.52570   0.20312
C          C       0.20013   0.84731   0.51954   0.20038
C          C       0.78315   0.15063   0.96632   0.20612
C          C       0.79538   0.84720   0.98466   0.19866
C          C       0.69122   0.65274   0.48000   0.20336
C          C       0.71885   0.34996   0.54110   0.20257
C          C       0.29276   0.65198   0.95625   0.19882
C          C       0.29829   0.34838   0.01947   0.21129
C          C       0.17838   0.18476   0.52018  -0.23753
C          C       0.14854   0.81396   0.47194  -0.23087
C          C       0.83657   0.18384   0.01964  -0.24090
C          C       0.83893   0.81420   0.00093  -0.23147
C          C       0.64298   0.68539   0.44542  -0.22928
C          C       0.67168   0.31634   0.50792  -0.23778
C          C       0.34043   0.68542   0.98904  -0.22878
C          C       0.34786   0.31574   0.06153  -0.23885
C          C       0.21790   0.21777   0.51445   0.08227
C          C       0.19273   0.78099   0.47820   0.08114
C          C       0.79273   0.21702   0.01169   0.08550
C          C       0.79611   0.78117  -0.00264   0.08050
C          C       0.69050   0.71865   0.46495   0.08113
C          C       0.71306   0.28354   0.50191   0.08479
C          C       0.29870   0.71829   0.99418   0.08108
C          C       0.29923   0.28245   0.03821   0.08468
C          C       0.30504   0.21724   0.52065   0.06428
C          C       0.29256   0.78207   0.53016   0.07009
C          C       0.69205   0.21623   0.95616   0.06716
C          C       0.70534   0.78173   0.97916   0.06867
C          C       0.79074   0.71852   0.51872   0.06741
C          C       0.80627   0.28501   0.52876   0.06743
C          C       0.20670   0.71683   0.97173   0.06709
C          C       0.19743   0.28255   0.97768   0.06891
C          C       0.34650   0.18307   0.52844  -0.12621
C          C       0.34094   0.81662   0.56588  -0.12622
C          C       0.64196   0.18180   0.91609  -0.12559
C          C       0.66285   0.81596   0.96637  -0.12819
C          C       0.83646   0.68446   0.54420  -0.12607
C          C       0.85109   0.31976   0.55426  -0.12863
C          C       0.16132   0.68217   0.94503  -0.12317
C          C       0.15170   0.31667   0.95101  -0.13019
C          C       0.14822   0.24965   0.94988  -0.18999
C          C       0.16566   0.74913   0.97802  -0.18671
C          C       0.84918   0.25269   0.52918  -0.18690
C          C       0.83852   0.75141   0.54137  -0.18790
C          C       0.66403   0.74916   0.97909  -0.19000
C          C       0.64750   0.24890   0.94396  -0.18678
C          C       0.33774   0.74962   0.54150  -0.19250
C          C       0.34563   0.24988   0.51975  -0.18610
C          C       0.49964   0.51881   0.49569  -0.14055
C          C       0.50682   0.48233   0.51560  -0.13825
C          C       0.00843   0.01904   0.51410  -0.13497
C          C       0.00714   0.98224   0.52248  -0.13487
S          S       0.39615   0.54247   0.44841   0.13665
S          S       0.41012   0.45647   0.48328   0.15558
S          S       0.59804   0.54208   0.03119   0.14724
S          S       0.60266   0.45583   0.06517   0.16323
S          S       0.90899   0.04512   0.46588   0.16525
S          S       0.90699   0.95833   0.48883   0.15053
S          S       0.09694   0.04437   0.04618   0.15992
S          S       0.10602   0.95732   0.06661   0.14308
S          S       0.39760   0.54345   0.94462   0.16914
S          S       0.40625   0.45588   0.99399   0.15101
S          S       0.59478   0.54537   0.52705   0.16412
S          S       0.61125   0.45826   0.57045   0.14063
S          S       0.89767   0.04249   0.96487   0.13910
S          S       0.90502   0.95563   0.98046   0.15848
S          S       0.10928   0.04347   0.55230   0.14840
S          S       0.10483   0.95570   0.56559   0.16160
N          N       0.67094   0.38212   0.03856  -0.28958
N          N       0.67376   0.61630   0.01439  -0.30196
N          N       0.33847   0.38257   0.49461  -0.28739
N          N       0.31551   0.61620   0.44455  -0.30657
N          N       0.17853   0.88296   0.04653  -0.30359
N          N       0.15764   0.11717  -0.00387  -0.28559
N          N       0.82594   0.88399   0.48851  -0.29929
N          N       0.83755   0.11900   0.46549  -0.28717
N          N       0.68515   0.38355   0.55695  -0.30696
N          N       0.65325   0.61899   0.47839  -0.28759
N          N       0.33638   0.38184   0.01877  -0.30273
N          N       0.32838   0.61821   0.94869  -0.28835
N          N       0.16467   0.88094   0.52826  -0.28672
N          N       0.18479   0.11807   0.53405  -0.30116
N          N       0.83185   0.88099   0.98248  -0.29457
N          N       0.81918   0.11697   0.96023  -0.30440

