data_crystal

_audit_creation_method 'AiiDA-DDEC plugin'

_cell_length_a        13.59877
_cell_length_b        12.68420
_cell_length_c        12.14995

_cell_angle_alpha     90.01751
_cell_angle_beta     90.01752
_cell_angle_gamma     90.02754

_symmetry_space_group_name_Hall 'P 1'
_symmetry_space_group_name_H-M  'P 1'

loop_
_symmetry_equiv_pos_as_xyz
 'x,y,z'

loop_
_atom_site_label
_atom_site_type_symbol
_atom_site_fract_x
_atom_site_fract_y
_atom_site_fract_z
_atom_site_charge
B          B       0.60673   0.61585   0.38137   0.81594
B          B       0.39808   0.38495   0.38196   0.81572
B          B       0.39677   0.61498   0.62436   0.81452
B          B       0.60834   0.38650   0.62398   0.81513
B          B       0.89580   0.88775   0.88189   0.81362
B          B       0.10788   0.11635   0.88203   0.81551
B          B       0.10751   0.88600   0.12254   0.81450
B          B       0.89713   0.11644   0.12380   0.81549
P          P       0.90072   0.89239   0.11869   1.30541
P          P       0.10303   0.11056   0.11997   1.30730
P          P       0.10258   0.89175   0.88566   1.30465
P          P       0.90197   0.11166   0.88580   1.30745
P          P       0.60296   0.61129   0.61864   1.30712
P          P       0.40214   0.39010   0.61876   1.30607
P          P       0.40056   0.61014   0.38718   1.30533
P          P       0.60396   0.39070   0.38726   1.30471
H          H       0.76873   0.55939   0.26032   0.10785
H          H       0.23455   0.44178   0.26568   0.10800
H          H       0.23439   0.55819   0.74567   0.10700
H          H       0.76752   0.44450   0.74910   0.10760
H          H       0.73379   0.94784   0.25250   0.11390
H          H       0.27348   0.05400   0.24765   0.11500
H          H       0.27072   0.94669   0.75303   0.11380
H          H       0.73670   0.05522   0.74941   0.11456
H          H       0.74489   0.76206   0.95463   0.10435
H          H       0.25655   0.24555   0.95515   0.10358
H          H       0.25817   0.75981   0.05111   0.10362
H          H       0.74253   0.23797   0.05137   0.10452
H          H       0.75961   0.74741   0.54764   0.11248
H          H       0.24861   0.24992   0.54763   0.11307
H          H       0.24258   0.74512   0.45787   0.11508
H          H       0.76305   0.25794   0.45788   0.11265
H          H       0.89051   0.66652   0.15835   0.11752
H          H       0.11195   0.33530   0.16386   0.11724
H          H       0.11193   0.66607   0.84591   0.11743
H          H       0.88967   0.33696   0.85095   0.11731
H          H       0.62515   0.65155   0.85338   0.11714
H          H       0.37751   0.35402   0.85339   0.11674
H          H       0.37859   0.65075   0.15261   0.11766
H          H       0.62068   0.34471   0.15411   0.11721
H          H       0.51611   0.82869   0.33998   0.13660
H          H       0.41684   0.15408   0.45540   0.13871
H          H       0.41022   0.84704   0.54625   0.13857
H          H       0.52104   0.17816   0.64654   0.13591
H          H       0.59025   0.94357   0.35215   0.13135
H          H       0.49055   0.17178   0.33738   0.13630
H          H       0.48737   0.82551   0.66085   0.13584
H          H       0.59212   0.06035   0.64857   0.13115
H          H       0.59010   0.84651   0.45772   0.13876
H          H       0.41577   0.05723   0.34945   0.13051
H          H       0.41455   0.94179   0.65421   0.13150
H          H       0.60461   0.15224   0.53900   0.13720
H          H       0.90119   0.84824   0.54211   0.13086
H          H       0.10714   0.15042   0.54136   0.13103
H          H       0.13781   0.94108   0.41730   0.13544
H          H       0.90143   0.15469   0.46415   0.13043
H          H       0.97576   0.86061   0.66191   0.13749
H          H       0.03171   0.13540   0.65997   0.13825
H          H       0.07467   0.82228   0.44627   0.13388
H          H       0.97745   0.14361   0.34555   0.13736
H          H       0.88795   0.95827   0.63139   0.13847
H          H       0.12265   0.04058   0.63066   0.13607
H          H       0.04091   0.90005   0.33057   0.13714
H          H       0.88882   0.04560   0.37339   0.13753
C          C       0.58762   0.85855   0.36830  -0.42999
C          C       0.41897   0.14224   0.36587  -0.42840
C          C       0.41557   0.85710   0.63585  -0.42916
C          C       0.59362   0.14459   0.62825  -0.42710
C          C       0.81951   0.81442   0.19876  -0.22419
C          C       0.18545   0.18757   0.19924  -0.22602
C          C       0.18388   0.81365   0.80592  -0.22496
C          C       0.82001   0.18919   0.80689  -0.22768
C          C       0.68083   0.69070   0.31402  -0.26317
C          C       0.32418   0.31027   0.31469  -0.26267
C          C       0.32263   0.68938   0.69187  -0.26153
C          C       0.68230   0.31251   0.69159  -0.26219
C          C       0.76059   0.64465   0.25825  -0.06118
C          C       0.24338   0.35667   0.26131  -0.06159
C          C       0.24264   0.64350   0.74743  -0.06051
C          C       0.76034   0.35907   0.74989  -0.06089
C          C       0.82959   0.70442   0.20065  -0.08088
C          C       0.17405   0.29732   0.20382  -0.08113
C          C       0.17339   0.70364   0.80419  -0.08171
C          C       0.82928   0.29930   0.80731  -0.08055
C          C       0.74078   0.86234   0.25420  -0.13857
C          C       0.26560   0.13933   0.25177  -0.13812
C          C       0.26320   0.86122   0.75122  -0.13861
C          C       0.74275   0.14085   0.74922  -0.13852
C          C       0.67109   0.80205   0.31144   0.19114
C          C       0.33516   0.19912   0.30981   0.19057
C          C       0.33265   0.80072   0.69401   0.19098
C          C       0.67381   0.20105   0.69101   0.19078
C          C       0.90159   0.87293   0.62862  -0.42806
C          C       0.10656   0.12544   0.62783  -0.42684
C          C       0.10314   0.87161   0.37915  -0.42695
C          C       0.90285   0.13084   0.37736  -0.42498
C          C       0.68459   0.69330   0.69358  -0.22617
C          C       0.32064   0.30831   0.69370  -0.22655
C          C       0.31827   0.69141   0.31226  -0.22617
C          C       0.68531   0.30882   0.31244  -0.22720
C          C       0.82122   0.81741   0.81057  -0.26322
C          C       0.18308   0.18585   0.81089  -0.26334
C          C       0.18133   0.81534   0.19486  -0.26539
C          C       0.82191   0.18579   0.19499  -0.26428
C          C       0.74848   0.75856   0.86528  -0.05943
C          C       0.25446   0.24664   0.86563  -0.05859
C          C       0.25445   0.75646   0.14045  -0.05786
C          C       0.74727   0.24214   0.14065  -0.05954
C          C       0.68056   0.69638   0.80887  -0.08151
C          C       0.32293   0.30783   0.80908  -0.08044
C          C       0.32262   0.69490   0.19690  -0.08408
C          C       0.67876   0.30300   0.19754  -0.08071
C          C       0.75680   0.75103   0.63713  -0.13787
C          C       0.24982   0.24870   0.63725  -0.13913
C          C       0.24577   0.74879   0.36834  -0.13716
C          C       0.75909   0.25321   0.36854  -0.13743
C          C       0.82550   0.81292   0.69409   0.19198
C          C       0.18064   0.18761   0.69418   0.19140
C          C       0.17723   0.81095   0.31126   0.19198
C          C       0.82720   0.19101   0.31146   0.19118
O          O       0.39880   0.65129   0.50666  -0.62552
O          O       0.60592   0.34961   0.50667  -0.62434
O          O       0.60268   0.65180   0.49906  -0.62782
O          O       0.40202   0.34880   0.49939  -0.62712
O          O       0.50431   0.62017   0.33401  -0.61382
O          O       0.50023   0.38025   0.33436  -0.61362
O          O       0.49924   0.62009   0.67168  -0.61533
O          O       0.50595   0.38057   0.67145  -0.61530
O          O       0.64349   0.50506   0.37797  -0.61747
O          O       0.36132   0.49565   0.37819  -0.61849
O          O       0.36120   0.50389   0.62769  -0.61665
O          O       0.64379   0.49759   0.62761  -0.61831
O          O      -0.00054   0.16089   0.13273  -0.61475
O          O       0.00462   0.84274   0.12786  -0.61712
O          O       0.00580   0.16137   0.87294  -0.61494
O          O      -0.00183   0.84314   0.87456  -0.61533
O          O       0.13935   0.11463  -0.00054  -0.62432
O          O       0.86212   0.89006  -0.00115  -0.62031
O          O       0.86564   0.11491   0.00627  -0.62326
O          O       0.14067   0.88637   0.00561  -0.62040
O          O       0.89775   0.00521   0.16679  -0.62184
O          O       0.10718   0.99703   0.16621  -0.62036
O          O       0.10688   0.00507   0.83903  -0.62037
O          O       0.89749  -0.00133   0.83849  -0.62117

