data_crystal

_audit_creation_method 'AiiDA-DDEC plugin'

_cell_length_a        15.54435
_cell_length_b        15.81715
_cell_length_c        14.91526

_cell_angle_alpha     89.99954
_cell_angle_beta     89.99817
_cell_angle_gamma     89.99448

_symmetry_space_group_name_Hall 'P 1'
_symmetry_space_group_name_H-M  'P 1'

loop_
_symmetry_equiv_pos_as_xyz
 'x,y,z'

loop_
_atom_site_label
_atom_site_type_symbol
_atom_site_fract_x
_atom_site_fract_y
_atom_site_fract_z
_atom_site_charge
B          B       0.40480   0.59199   0.59537   0.81161
B          B       0.59569   0.40826   0.59558   0.81283
B          B       0.59554   0.59317   0.40457   0.81505
B          B       0.40721   0.40688   0.40376   0.81522
B          B       0.09656   0.90869   0.09664   0.81100
B          B       0.90680   0.09249   0.09621   0.81104
B          B       0.90424   0.90890   0.90537   0.81240
B          B       0.09648   0.09006   0.90315   0.81417
P          P       0.09089   0.90995   0.90898   1.30634
P          P       0.90984   0.08921   0.90856   1.30810
P          P       0.90944   0.91315   0.09318   1.30901
P          P       0.09347   0.08771   0.09119   1.30838
P          P       0.40873   0.58781   0.40878   1.30948
P          P       0.59387   0.41246   0.40871   1.31057
P          P       0.59178   0.58906   0.59157   1.30780
P          P       0.40846   0.41149   0.59097   1.30620
H          H       0.27275   0.71085   0.56974   0.10072
H          H       0.71298   0.27502   0.56951   0.10070
H          H       0.73970   0.69706   0.42883   0.10086
H          H       0.26883   0.29526   0.42814   0.10093
H          H       0.33936   0.67679   0.89431   0.10589
H          H       0.68001   0.34104   0.89399   0.10561
H          H       0.64585   0.69886   0.10960   0.10615
H          H       0.35029   0.31298   0.10564   0.10761
H          H       0.42035   0.59561   0.78055   0.09402
H          H       0.59762   0.42114   0.78065   0.09512
H          H       0.56766   0.61315   0.22146   0.09717
H          H       0.42941   0.39599   0.21906   0.09776
H          H       0.22676   0.78285   0.93169   0.10899
H          H       0.78657   0.22858   0.93120   0.10928
H          H       0.76245   0.80169   0.07348   0.11303
H          H       0.23569   0.20744   0.06816   0.11658
H          H       0.07942   0.89814   0.71915   0.11048
H          H       0.90140   0.08248   0.71811   0.11165
H          H       0.93535   0.88386   0.28243   0.10614
H          H       0.07481   0.10882   0.27955   0.10852
H          H       0.16087   0.81584   0.60608   0.11125
H          H       0.81718   0.16255   0.60576   0.10990
H          H       0.85640   0.79659   0.39306   0.11036
H          H       0.15485   0.19354   0.39176   0.11380
H          H       0.21487   0.77676   0.07005   0.09764
H          H       0.80132   0.23576   0.07085   0.10085
H          H       0.78019   0.78091   0.93291   0.09997
H          H       0.19210   0.23970   0.92572   0.10511
H          H       0.17519   0.83476   0.39546   0.10571
H          H       0.81061   0.15096   0.39222   0.10642
H          H       0.82959   0.83209   0.60744   0.10619
H          H       0.20841   0.13703   0.61035   0.10820
H          H       0.09484   0.91747   0.28259   0.09610
H          H       0.89404   0.07142   0.27909   0.09621
H          H       0.90995   0.91380   0.72108   0.09523
H          H       0.12288   0.05904   0.72274   0.09237
H          H       0.28288   0.72277   0.43164   0.10996
H          H       0.70810   0.26668   0.42951   0.11022
H          H       0.72008   0.72262   0.57022   0.10988
H          H       0.30699   0.25657   0.57240   0.11718
H          H       0.40424   0.58420   0.21694   0.10774
H          H       0.61453   0.43021   0.21946   0.10813
H          H       0.58848   0.59162   0.78372   0.10750
H          H       0.37469   0.43770   0.77730   0.10720
H          H       0.32174   0.66690   0.10510   0.11066
H          H       0.69988   0.35084   0.10741   0.11022
H          H       0.66994   0.67392   0.89645   0.11094
H          H       0.28788   0.35870   0.88839   0.11340
C          C       0.35179   0.64702   0.66615  -0.19808
C          C       0.64966   0.35380   0.66605  -0.19919
C          C       0.64810   0.64912   0.33408  -0.19998
C          C       0.35473   0.35160   0.33265  -0.20257
C          C       0.28789   0.70295   0.64049  -0.11635
C          C       0.70527   0.28989   0.64028  -0.11933
C          C       0.71853   0.69721   0.35925  -0.11451
C          C       0.28739   0.29946   0.35787  -0.11622
C          C       0.24075   0.75136   0.70365   0.07716
C          C       0.75352   0.24238   0.70338   0.07714
C          C       0.76446   0.74792   0.29714   0.07723
C          C       0.24100   0.25021   0.29476   0.07788
C          C       0.25945   0.74172   0.79732   0.07220
C          C       0.74459   0.26124   0.79699   0.07260
C          C       0.73760   0.74901   0.20510   0.07182
C          C       0.26403   0.25474   0.20166   0.07138
C          C       0.32490   0.68398   0.82327  -0.14653
C          C       0.68720   0.32677   0.82299  -0.14699
C          C       0.66628   0.69834   0.17942  -0.14584
C          C       0.33253   0.30919   0.17614  -0.14841
C          C       0.36946   0.63854   0.75949  -0.06428
C          C       0.64145   0.37130   0.75939  -0.05899
C          C       0.62316   0.65032   0.24214  -0.06671
C          C       0.37623   0.35569   0.23980  -0.06294
C          C       0.21257   0.79014   0.86069  -0.09736
C          C       0.79326   0.21428   0.86024  -0.10116
C          C       0.78289   0.80040   0.14319  -0.10178
C          C       0.21810   0.20478   0.13875  -0.10336
C          C       0.14919   0.84577   0.83264  -0.21673
C          C       0.84883   0.15110   0.83220  -0.21657
C          C       0.85278   0.84832   0.17057  -0.21741
C          C       0.15137   0.15297   0.16683  -0.22007
C          C       0.13030   0.85513   0.73970  -0.08266
C          C       0.85747   0.13212   0.73922  -0.07911
C          C       0.87966   0.84708   0.26193  -0.07752
C          C       0.12815   0.14886   0.25913  -0.07697
C          C       0.17531   0.80897   0.67714  -0.13112
C          C       0.81070   0.17684   0.67683  -0.13036
C          C       0.83606   0.79809   0.32324  -0.13177
C          C       0.17239   0.19633   0.32118  -0.13312
C          C       0.14922   0.85293   0.16717  -0.19851
C          C       0.85356   0.14819   0.16612  -0.20127
C          C       0.85021   0.85347   0.83582  -0.19743
C          C       0.15190   0.14373   0.83325  -0.19998
C          C       0.20619   0.79037   0.14097  -0.11625
C          C       0.80354   0.21661   0.14090  -0.11851
C          C       0.79069   0.79322   0.86194  -0.11703
C          C       0.19592   0.21640   0.85714  -0.12405
C          C       0.25418   0.74230   0.20374   0.07736
C          C       0.75408   0.26325   0.20371   0.07728
C          C       0.74269   0.74557   0.79868   0.07630
C          C       0.24654   0.26232   0.79467   0.07765
C          C       0.24280   0.75842   0.29761   0.07363
C          C       0.75657   0.23913   0.29638   0.07324
C          C       0.75688   0.75970   0.70482   0.07385
C          C       0.25166   0.23306   0.70373   0.07275
C          C       0.18396   0.82246   0.32422  -0.14699
C          C       0.80869   0.16934   0.32192  -0.14727
C          C       0.81833   0.82143   0.67857  -0.14740
C          C       0.20511   0.15917   0.67940  -0.15014
C          C       0.13916   0.86822   0.26081  -0.06218
C          C       0.85524   0.12541   0.25854  -0.05994
C          C       0.86305   0.86672   0.74229  -0.06358
C          C       0.15724   0.11610   0.74245  -0.05539
C          C       0.29093   0.71054   0.36041  -0.10189
C          C       0.70667   0.28507   0.35930  -0.10105
C          C       0.70965   0.71165   0.64137  -0.09940
C          C       0.30256   0.27872   0.64132  -0.10590
C          C       0.34814   0.64907   0.33170  -0.21613
C          C       0.65628   0.35254   0.33197  -0.21832
C          C       0.65040   0.65174   0.66932  -0.21711
C          C       0.34619   0.35106   0.66757  -0.21779
C          C       0.35932   0.63282   0.23849  -0.07814
C          C       0.65388   0.37674   0.23997  -0.07614
C          C       0.63575   0.63815   0.76254  -0.07937
C          C       0.34097   0.38030   0.75780  -0.07579
C          C       0.31327   0.67871   0.17645  -0.13088
C          C       0.70167   0.33279   0.17781  -0.12971
C          C       0.68101   0.68411   0.82521  -0.13135
C          C       0.29241   0.33650   0.81945  -0.13374
O          O       0.39601   0.62799   0.50285  -0.60066
O          O       0.60451   0.37227   0.50301  -0.60147
O          O       0.60434   0.62898   0.49735  -0.60172
O          O       0.39750   0.37121   0.49659  -0.60197
O          O       0.50314   0.59158   0.37692  -0.63022
O          O       0.49978   0.40851   0.37568  -0.63080
O          O       0.49725   0.59128   0.62325  -0.63054
O          O       0.50288   0.40881   0.62353  -0.63001
O          O       0.37392   0.49628   0.40410  -0.61926
O          O       0.62918   0.50395   0.40435  -0.62028
O          O       0.62854   0.49805   0.59592  -0.61865
O          O       0.37170   0.50260   0.59552  -0.61747
O          O       0.00382   0.09100   0.87466  -0.62942
O          O       0.99663   0.90844   0.87604  -0.62927
O          O      -0.00060   0.08823   0.12454  -0.63098
O          O       0.00401   0.91215   0.12459  -0.63028
O          O       0.87209  -0.00141   0.90322  -0.61756
O          O       0.12878   0.00037   0.90236  -0.61805
O          O       0.13206   0.99723   0.09733  -0.61504
O          O       0.87140   0.00378   0.09775  -0.61635
O          O       0.10325   0.87191   0.00411  -0.60091
O          O       0.89994   0.12851   0.00353  -0.60198
O          O       0.89620   0.87443  -0.00147  -0.60423
O          O       0.10409   0.12547   0.99585  -0.60444

