data_crystal

_audit_creation_method 'AiiDA-DDEC plugin'

_cell_length_a        12.46149
_cell_length_b        12.98810
_cell_length_c        13.17379

_cell_angle_alpha     90.11412
_cell_angle_beta     89.95903
_cell_angle_gamma     89.95563

_symmetry_space_group_name_Hall 'P 1'
_symmetry_space_group_name_H-M  'P 1'

loop_
_symmetry_equiv_pos_as_xyz
 'x,y,z'

loop_
_atom_site_label
_atom_site_type_symbol
_atom_site_fract_x
_atom_site_fract_y
_atom_site_fract_z
_atom_site_charge
B          B       0.61858   0.60982   0.39062   0.85502
B          B       0.38372   0.38931   0.38949   0.85778
B          B       0.38104   0.61406   0.60571   0.85742
B          B       0.61284   0.38832   0.61141   0.85469
B          B       0.12033   0.89157   0.10788   0.85630
B          B       0.88271   0.10760   0.11342   0.85933
B          B       0.88060   0.89127   0.89003   0.85770
B          B       0.11520   0.11276   0.88890   0.85654
P          P       0.89061   0.89036   0.10474   1.32903
P          P       0.11298   0.10947   0.10245   1.32747
P          P       0.11021   0.89421   0.89373   1.32731
P          P       0.88504   0.10932   0.89902   1.32752
P          P       0.39076   0.60693   0.39115   1.33264
P          P       0.61091   0.39165   0.39570   1.32721
P          P       0.60975   0.60634   0.60590   1.32648
P          P       0.38578   0.39677   0.60497   1.33243
H          H       0.73513   0.72295   0.06290   0.15167
H          H       0.25632   0.28499   0.06400   0.15456
H          H       0.26012   0.72330   0.93141   0.15284
H          H       0.71320   0.26381   0.93937   0.15394
H          H       0.88625   0.86833   0.32351   0.15110
H          H       0.12707   0.11897   0.32253   0.14972
H          H       0.12225   0.88400   0.67360   0.15053
H          H       0.88948   0.13767   0.68307   0.15068
H          H       0.36720   0.82875   0.38356   0.15056
H          H       0.62373   0.16910   0.37984   0.15126
H          H       0.62194   0.82903   0.62465   0.15131
H          H       0.38353   0.17586   0.63169   0.15106
H          H       0.23678   0.56193   0.22769   0.14693
H          H       0.77962   0.43548   0.24607   0.15129
H          H       0.76766   0.56155   0.76633   0.15154
H          H       0.20902   0.44033   0.74908   0.15114
C          C       0.81591   0.80602   0.18480  -0.15622
C          C       0.18788   0.19116   0.18461  -0.15755
C          C       0.18660   0.81406   0.81109  -0.15575
C          C       0.80730   0.19092   0.81943  -0.15472
C          C       0.69367   0.67912   0.31793  -0.42351
C          C       0.30800   0.31838   0.31893  -0.42609
C          C       0.30614   0.68681   0.67567  -0.42776
C          C       0.68557   0.31594   0.68383  -0.42408
C          C       0.68691   0.67191   0.21171   0.33222
C          C       0.30783   0.33138   0.21347   0.33395
C          C       0.30916   0.67601   0.78142   0.33381
C          C       0.67217   0.31814   0.78981   0.33056
C          C       0.74474   0.73313   0.14424  -0.21272
C          C       0.25160   0.27026   0.14498  -0.21574
C          C       0.25327   0.73706   0.85039  -0.21440
C          C       0.72899   0.25750   0.85847  -0.21251
C          C       0.82975   0.81443   0.29009  -0.21577
C          C       0.17883   0.17742   0.28982  -0.21376
C          C       0.17572   0.82672   0.70593  -0.21671
C          C       0.82735   0.18675   0.71492  -0.21741
C          C       0.76914   0.75098   0.35281   0.33366
C          C       0.23798   0.24161   0.35325   0.33479
C          C       0.23478   0.76292   0.64183   0.33375
C          C       0.76651   0.24828   0.65076   0.33357
C          C       0.31139   0.68693   0.31238  -0.15748
C          C       0.69317   0.31029   0.31983  -0.15475
C          C       0.68809   0.68668   0.68628  -0.15329
C          C       0.30416   0.31682   0.68232  -0.15611
C          C       0.19152   0.81974   0.18247  -0.42358
C          C       0.81298   0.17800   0.19002  -0.42734
C          C       0.80746   0.81902   0.81760  -0.42670
C          C       0.18504   0.18395   0.81278  -0.42723
C          C       0.25828   0.85595   0.26063   0.33390
C          C       0.73921   0.14076   0.26155   0.33430
C          C       0.73474   0.85560   0.74471   0.33502
C          C       0.26415   0.14836   0.74543   0.33386
C          C       0.31839   0.79366   0.32465  -0.21687
C          C       0.67931   0.20337   0.32612  -0.21737
C          C       0.67553   0.79355   0.67938  -0.21794
C          C       0.32378   0.21077   0.68108  -0.21787
C          C       0.24460   0.64452   0.23819  -0.21415
C          C       0.76685   0.35294   0.25162  -0.21618
C          C       0.75736   0.64417   0.75843  -0.21698
C          C       0.22583   0.35832   0.74663  -0.21586
C          C       0.18659   0.71180   0.17726   0.33201
C          C       0.82417   0.28539   0.18994   0.33504
C          C       0.81416   0.71122   0.82099   0.33339
C          C       0.16933   0.29085   0.80888   0.33465
O          O       0.49341   0.61444   0.64605  -0.62840
O          O       0.50010   0.39028   0.64999  -0.62855
O          O       0.50671   0.61329   0.34989  -0.62561
O          O       0.49655   0.38553   0.34982  -0.62503
O          O       0.61831   0.64982   0.49668  -0.62375
O          O       0.38482   0.35273   0.49593  -0.62944
O          O       0.38432   0.65163   0.49976  -0.62536
O          O       0.61322   0.34879   0.50528  -0.62582
O          O       0.65959   0.50103   0.38960  -0.61537
O          O       0.34291   0.49751   0.38484  -0.61654
O          O       0.33770   0.50635   0.61000  -0.61465
O          O       0.65654   0.49612   0.61468  -0.61272
O          O       0.00703   0.88998   0.14550  -0.62769
O          O      -0.00242   0.10948   0.14561  -0.62913
O          O       0.99411   0.89052   0.85143  -0.62378
O          O       0.00037   0.11434   0.85537  -0.62970
O          O       0.15555   0.00511   0.88957  -0.62382
O          O       0.83921  -0.00131   0.89140  -0.62233
O          O       0.84274  -0.00005   0.11363  -0.62245
O          O       0.16129  -0.00057   0.10582  -0.62099
O          O       0.87987   0.84842   0.99553  -0.62143
O          O       0.12275   0.15613   0.99475  -0.61497
O          O       0.12352   0.84893   0.00157  -0.61799
O          O       0.87478   0.15140   0.00833  -0.61894
F          F       0.62022   0.59951   0.17031  -0.13515
F          F       0.36517   0.41154   0.17466  -0.13367
F          F       0.37021   0.59870   0.82034  -0.13178
F          F       0.59926   0.38529   0.83000  -0.13282
F          F       0.78664   0.76066   0.45466  -0.14067
F          F       0.22388   0.22871   0.45504  -0.14079
F          F       0.21881   0.77609   0.54017  -0.14185
F          F       0.79127   0.24001   0.55004  -0.14212
F          F       0.26553   0.95889   0.27971  -0.14260
F          F       0.72373   0.03714   0.27035  -0.14043
F          F       0.71879   0.95878   0.73473  -0.13983
F          F       0.28656   0.04601   0.73994  -0.13859
F          F       0.11925   0.66683   0.10907  -0.13305
F          F       0.89619   0.32820   0.12479  -0.13334
F          F       0.88084   0.66670   0.89011  -0.13408
F          F       0.09332   0.33334   0.87030  -0.13389

