data_crystal

_audit_creation_method 'AiiDA-DDEC plugin'

_cell_length_a        13.91985
_cell_length_b         8.98360
_cell_length_c        11.32237

_cell_angle_alpha     94.87683
_cell_angle_beta     102.89692
_cell_angle_gamma     89.38672

_symmetry_space_group_name_Hall 'P 1'
_symmetry_space_group_name_H-M  'P 1'

loop_
_symmetry_equiv_pos_as_xyz
 'x,y,z'

loop_
_atom_site_label
_atom_site_type_symbol
_atom_site_fract_x
_atom_site_fract_y
_atom_site_fract_z
_atom_site_charge
B          B       0.39964   0.51007   0.16874   0.77868
B          B       0.87118   0.97584   0.12647   0.99856
B          B       0.39218   0.00978   0.16580   0.77916
B          B       0.87303   0.48266   0.15398   0.99302
B          B       0.41719   0.41319   0.62616   0.69840
B          B       0.92725   0.03079   0.63287   0.69955
B          B       0.40562   0.91165   0.62096   0.69801
B          B       0.92242   0.53300   0.61728   0.64120
P          P       0.33956   0.27508   0.28510   1.22621
P          P       0.81543   0.23417   0.24760   1.29424
P          P       0.33806   0.77156   0.28072   1.22791
P          P       0.81169   0.75719   0.23349   1.26283
P          P       0.35277   0.17670   0.74423   1.22013
P          P       0.87209   0.30817   0.73776   1.26577
P          P       0.35666   0.67225   0.74698   1.22527
P          P       0.85776   0.79538   0.72393   1.25731
H          H       0.64574   0.20496   0.03560   0.10846
H          H       0.19957   0.32925   0.07135   0.12267
H          H       0.72166   0.42023   0.40071   0.10524
H          H       0.21144   0.09110   0.38989   0.11015
H          H       0.48334   0.32818   0.00266   0.11527
H          H       0.02989   0.21948   0.97979   0.14325
H          H       0.54678   0.02860   0.36583   0.10529
H          H       0.05170   0.46494   0.29448   0.12600
H          H       0.64392   0.73106   0.02072   0.10872
H          H       0.19304   0.82614   0.06617   0.12297
H          H       0.71314   0.91420   0.39556   0.10614
H          H       0.22099   0.57119   0.37739   0.10719
H          H       0.47864   0.84528   0.99224   0.11548
H          H       0.02018   0.72002   0.98297   0.15212
H          H       0.55855   0.54281   0.36609   0.10300
H          H       0.04504   0.98229   0.29769   0.13065
H          H       0.71727   0.21570   0.52508   0.10887
H          H       0.20149   0.32345   0.57328   0.12788
H          H       0.74090   0.46122   0.87514   0.11074
H          H       0.34905   0.04417   0.98826   0.39509
H          H       0.53953   0.25621   0.47702   0.09948
H          H       0.02588   0.26888   0.47709   0.15049
H          H       0.55571   0.03943   0.80244   0.10347
H          H       0.08511   0.43505   0.87764   0.23370
H          H       0.69820   0.68009   0.53211   0.10965
H          H       0.22006   0.75828   0.54421   0.11761
H          H       0.73547  -0.00311   0.84782   0.10940
H          H       0.35632   0.54649   0.99072   0.39586
H          H       0.52111   0.72344   0.48759   0.10078
H          H       0.05509   0.71553   0.43495   0.13514
H          H       0.56012   0.49752   0.82732   0.10987
H          H       0.08131   0.92592   0.86454   0.24233
C          C       0.50955   0.44535   0.18160  -0.17780
C          C       0.03099   0.09268   0.13215   0.34921
C          C       0.69384   0.30355   0.22139  -0.24387
C          C       0.21472   0.21757   0.23649  -0.23980
C          C       0.62728   0.28004   0.10775  -0.05383
C          C       0.16478   0.25308   0.11966  -0.01777
C          C       0.66930   0.40038   0.31396  -0.06846
C          C       0.17123   0.12178   0.30152  -0.02894
C          C       0.53616   0.35118   0.08889  -0.04956
C          C       0.07264   0.19084   0.06750  -0.21245
C          C       0.57807   0.47022   0.29324  -0.05378
C          C       0.07869   0.05971   0.24979  -0.23328
C          C       0.50164   0.94645   0.17640  -0.18028
C          C       0.02800   0.58885   0.13463   0.35491
C          C       0.68787   0.81492   0.21085  -0.22981
C          C       0.21511   0.70657   0.22780  -0.23040
C          C       0.62259   0.79643   0.09613  -0.05339
C          C       0.16067   0.74715   0.11463  -0.01449
C          C       0.66094   0.89945   0.30822  -0.07661
C          C       0.17626   0.60552   0.29275  -0.03493
C          C       0.53023   0.86290   0.07982  -0.05052
C          C       0.06693   0.68779   0.06742  -0.20947
C          C       0.56837   0.96439   0.29013  -0.05205
C          C       0.08234   0.54669   0.24714  -0.22488
C          C       0.53420   0.37900   0.64822  -0.16795
C          C       0.01084   0.06840   0.56219   0.13621
C          C       0.74187   0.33576   0.70378  -0.22444
C          C       0.21702   0.15903   0.70275  -0.00934
C          C       0.68356   0.27797   0.59184  -0.06524
C          C       0.16217   0.23920   0.60860  -0.11032
C          C       0.69620   0.41524   0.78852  -0.06679
C          C       0.17009   0.06480   0.76365   0.03722
C          C       0.58191   0.30087   0.56489  -0.06484
C          C       0.06438   0.20832   0.55355   0.04326
C          C       0.59423   0.43560   0.76057  -0.06095
C          C       0.12540   0.99030   0.82013  -0.11838
C          C       0.52300   0.88520   0.64030  -0.16685
C          C      -0.00110   0.59422   0.55460   0.07166
C          C       0.72952   0.83554   0.69321  -0.23099
C          C       0.22295   0.63679   0.69803  -0.07922
C          C       0.66768   0.76003   0.59111  -0.05788
C          C       0.17400   0.69198   0.58700  -0.04229
C          C       0.68815   0.93751   0.76869  -0.06593
C          C       0.17450   0.55916   0.76823   0.03323
C          C       0.56670   0.78518   0.56587  -0.06779
C          C       0.07725   0.66977   0.52302  -0.05432
C          C       0.58645   0.96133   0.74192  -0.05892
C          C       0.13085   0.49190   0.83052  -0.14203
O          O       0.34849   0.43726   0.25821  -0.58773
O          O       0.80686   0.07497   0.16922  -0.63015
O          O       0.40792   0.17106   0.22867  -0.56781
O          O       0.87477   0.33295   0.17124  -0.62426
O          O       0.33324   0.49735   0.05423  -0.71724
O          O       0.94438   0.02339   0.07442  -0.42743
O          O       0.37744   0.25747   0.42977  -0.25207
O          O       0.87046   0.22889   0.37520  -0.70546
O          O       0.34283   0.93506   0.25587  -0.58195
O          O       0.80661   0.57908   0.19347  -0.61570
O          O       0.41236   0.67312   0.22955  -0.56563
O          O       0.85581   0.82388   0.12593  -0.61326
O          O       0.32409   0.00019   0.05241  -0.72559
O          O       0.93602   0.53384   0.08734  -0.41356
O          O       0.37004   0.75252   0.42564  -0.25776
O          O       0.87498   0.79944   0.35453  -0.69227
O          O       0.37016   0.33953   0.71688  -0.61229
O          O       0.87919   0.13132   0.69577  -0.55823
O          O       0.38434   0.07463   0.64038  -0.54289
O          O       0.92143   0.37874   0.63953  -0.58077
O          O       0.35117   0.39281   0.50154  -0.29291
O          O       0.04188   0.97147   0.49576  -0.20452
O          O       0.38916   0.14056   0.87194  -0.65871
O          O       0.92511   0.34774   0.86487  -0.68691
O          O       0.36523   0.83704   0.71612  -0.60887
O          O       0.85682   0.62645   0.66858  -0.57707
O          O       0.40243   0.57700   0.65028  -0.54872
O          O       0.90780   0.88092   0.62815  -0.54336
O          O       0.33778   0.88265   0.49741  -0.28596
O          O       0.92013   0.54805   0.47509  -0.19781
O          O       0.39312   0.64413   0.87671  -0.66414
O          O       0.91657   0.82963   0.84927  -0.69304

