data_crystal

_audit_creation_method 'AiiDA-DDEC plugin'

_cell_length_a        17.63756
_cell_length_b        18.65247
_cell_length_c        17.18597

_cell_angle_alpha     90.01506
_cell_angle_beta     90.14678
_cell_angle_gamma     89.93821

_symmetry_space_group_name_Hall 'P 1'
_symmetry_space_group_name_H-M  'P 1'

loop_
_symmetry_equiv_pos_as_xyz
 'x,y,z'

loop_
_atom_site_label
_atom_site_type_symbol
_atom_site_fract_x
_atom_site_fract_y
_atom_site_fract_z
_atom_site_charge
B          B       0.58023   0.57780   0.41627   0.80901
B          B       0.41879   0.42170   0.41293   0.81055
B          B       0.41557   0.57516   0.58722   0.80977
B          B       0.58092   0.42183   0.58726   0.80760
B          B       0.91460   0.92143   0.91757   0.81110
B          B       0.08249   0.07585   0.91780   0.81039
B          B       0.08071   0.92048   0.08710   0.81021
B          B       0.91614   0.07726   0.08607   0.81190
P          P       0.57917   0.42534   0.42040   1.30161
P          P       0.41968   0.57337   0.42026   1.30707
P          P       0.41974   0.42366   0.58073   1.30117
P          P       0.57700   0.57348   0.58319   1.30297
P          P       0.91884   0.92568   0.08403   1.30393
P          P       0.07763   0.07203   0.08468   1.30374
P          P       0.07645   0.92422   0.91964   1.30586
P          P       0.92123   0.07277   0.91907   1.30209
H          H       0.68146   0.68490   0.53982   0.12300
H          H       0.35778   0.28224   0.54871   0.12322
H          H       0.32576   0.69521   0.46198   0.11615
H          H       0.67563   0.30576   0.46353   0.11583
H          H       0.76305   0.76599   0.61827   0.11743
H          H       0.28271   0.19900   0.62902   0.11105
H          H       0.24215   0.77360   0.38208   0.11760
H          H       0.75653   0.22490   0.38454   0.11693
H          H       0.68217   0.66691   0.82836   0.11316
H          H       0.27070   0.35817   0.81048   0.11248
H          H       0.29483   0.64910   0.17851   0.11604
H          H       0.69044   0.33800   0.17683   0.11286
H          H       0.60190   0.58470   0.75051   0.12281
H          H       0.35058   0.43888   0.73301   0.11696
H          H       0.37820   0.57034   0.25773   0.12369
H          H       0.61064   0.41973   0.25544   0.12379
H          H       0.74880   0.86536   0.70521   0.10296
H          H       0.18086   0.16044   0.67727   0.10242
H          H       0.26441   0.86154   0.28214   0.10255
H          H       0.74890   0.13298   0.29575   0.10325
H          H       0.82520   0.94916   0.78448   0.09862
H          H       0.10531   0.07862   0.75727   0.10858
H          H       0.18921   0.94691   0.20397   0.09159
H          H       0.82660   0.05010   0.21760   0.09656
H          H       0.88709   0.77625   0.93740   0.10165
H          H       0.17709   0.18996   0.96356   0.09576
H          H       0.08630   0.77151   0.08126   0.10110
H          H       0.89327   0.22480   0.06968   0.10153
H          H       0.81128   0.69219   0.85783   0.10254
H          H       0.25508   0.27034   0.88464   0.10372
H          H       0.16155   0.68568   0.15926   0.10294
H          H       0.81779   0.30840   0.14969   0.10205
H          H       0.95735   0.20033   0.83005   0.12218
H          H       0.03939   0.79580   0.83236   0.11963
H          H       0.09723   0.22515   0.07726   0.11964
H          H       0.93703   0.77814   0.12752   0.11389
H          H       0.87678   0.28325   0.75305   0.11373
H          H       0.11867   0.71299   0.75442   0.11314
H          H       0.17595   0.30951   0.15412   0.11326
H          H       0.85693   0.69498   0.20288   0.11478
H          H       0.68184   0.15157   0.79965   0.11602
H          H       0.31443   0.84466   0.79906   0.11344
H          H       0.25956   0.13422   0.29227   0.11507
H          H       0.69857   0.86600   0.24744   0.11441
H          H       0.76212   0.06798   0.87594   0.12426
H          H       0.23550   0.92770   0.87696   0.12237
H          H       0.18114   0.04937   0.21583   0.11112
H          H       0.77598   0.94820   0.16739   0.11877
H          H       0.77885   0.36963   0.77006   0.10420
H          H       0.21478   0.62682   0.76541   0.10218
H          H       0.18726   0.35969   0.28489   0.10532
H          H       0.81775   0.66190   0.32178   0.10242
H          H       0.70016   0.45286   0.69216   0.10271
H          H       0.29374   0.54454   0.68760   0.09506
H          H       0.26939   0.44132   0.36117   0.10845
H          H       0.73746   0.57846   0.39625   0.10868
H          H       0.57701   0.27391   0.59780   0.10338
H          H       0.41755   0.72414   0.59648   0.10540
H          H       0.45172   0.28872   0.34773   0.10335
H          H       0.53848   0.69261   0.32103   0.10304
H          H       0.65708   0.19051   0.67331   0.10246
H          H       0.33609   0.80678   0.67101   0.10294
H          H       0.36968   0.20680   0.27191   0.10289
H          H       0.61812   0.77480   0.24455   0.10300
C          C       0.72708   0.72701   0.64728  -0.14018
C          C       0.29628   0.25184   0.65184  -0.13562
C          C       0.27310   0.72991   0.35475  -0.13977
C          C       0.72423   0.26723   0.35622  -0.14050
C          C       0.72800   0.72278   0.72898   0.08383
C          C       0.27066   0.27166   0.72642   0.08401
C          C       0.26395   0.71784   0.27446   0.08376
C          C       0.72988   0.27583   0.27510   0.08421
C          C       0.68287   0.67017   0.76519  -0.13860
C          C       0.29095   0.34028   0.75403  -0.14027
C          C       0.30151   0.65900   0.24052  -0.14043
C          C       0.68840   0.33171   0.23971  -0.13816
C          C       0.63726   0.62429   0.72154  -0.06042
C          C       0.33557   0.38642   0.71004  -0.06019
C          C       0.34871   0.61510   0.28482  -0.06021
C          C       0.64317   0.37746   0.28367  -0.05790
C          C       0.63593   0.63029   0.63999  -0.22876
C          C       0.36032   0.36579   0.63566  -0.22436
C          C       0.35865   0.62901   0.36463  -0.23036
C          C       0.63858   0.36833   0.36472  -0.22992
C          C       0.68174   0.68139   0.60300  -0.06057
C          C       0.33975   0.29815   0.60665  -0.06013
C          C       0.31978   0.68608   0.39975  -0.05695
C          C       0.67925   0.31277   0.40084  -0.05746
C          C       0.82327   0.89270   0.80043  -0.06142
C          C       0.13781   0.12086   0.78561  -0.06426
C          C       0.18170   0.88973   0.19473  -0.06314
C          C       0.82492   0.10664   0.20205  -0.06648
C          C       0.86298   0.86911   0.86662  -0.22110
C          C       0.13430   0.12805   0.86699  -0.22115
C          C       0.13082   0.86620   0.13742  -0.21471
C          C       0.86569   0.13063   0.13696  -0.21796
C          C       0.85742   0.79608   0.88612  -0.06719
C          C       0.17748   0.18317   0.90070  -0.06906
C          C       0.12483   0.79174   0.12574  -0.06490
C          C       0.86194   0.20421   0.11938  -0.06315
C          C       0.81406   0.74861   0.84193  -0.15129
C          C       0.22152   0.22928   0.85572  -0.14644
C          C       0.16758   0.74305   0.16919  -0.15030
C          C       0.81866   0.25153   0.16388  -0.14542
C          C       0.77471   0.77262   0.77562   0.04981
C          C       0.22420   0.22252   0.77422   0.04660
C          C       0.21762   0.76748   0.22722   0.05171
C          C       0.77724   0.22678   0.22834   0.04809
C          C       0.78023   0.84549   0.75538  -0.14764
C          C       0.18135   0.16694   0.74015  -0.14693
C          C       0.22409   0.84171   0.23923  -0.14882
C          C       0.78149   0.15348   0.24692  -0.14839
C          C       0.85130   0.23693   0.78115  -0.13748
C          C       0.14458   0.75933   0.78222  -0.13799
C          C       0.17657   0.25260   0.16796  -0.13897
C          C       0.83964   0.75066   0.19644  -0.13911
C          C       0.77310   0.22397   0.77157   0.08478
C          C       0.22246   0.77247   0.77114   0.08294
C          C       0.22400   0.22772   0.22822   0.08819
C          C       0.77160   0.77415   0.23107   0.08453
C          C       0.74223   0.16204   0.80593  -0.14024
C          C       0.25420   0.83398   0.80591  -0.13821
C          C       0.22463   0.15385   0.24461  -0.13958
C          C       0.74991   0.84612   0.21995  -0.13996
C          C       0.78704   0.11534   0.84946  -0.06225
C          C       0.21018   0.88051   0.85032  -0.05504
C          C       0.18045   0.10614   0.20181  -0.05842
C          C       0.79372   0.89289   0.17566  -0.06316
C          C       0.86473   0.12952   0.85939  -0.22751
C          C       0.13256   0.86670   0.86062  -0.22568
C          C       0.13475   0.13128   0.14077  -0.22357
C          C       0.86154   0.86876   0.14214  -0.22383
C          C       0.89679   0.19041   0.82436  -0.06081
C          C       0.09987   0.80577   0.82609  -0.05966
C          C       0.13259   0.20520   0.12449  -0.06037
C          C       0.88431   0.79719   0.15304  -0.05643
C          C       0.69051   0.39536   0.68774  -0.06635
C          C       0.30405   0.60198   0.68445  -0.06648
C          C       0.29171   0.38997   0.34159  -0.06680
C          C       0.71100   0.62180   0.36346  -0.06879
C          C       0.63275   0.36994   0.63862  -0.21719
C          C       0.36271   0.62748   0.63691  -0.22036
C          C       0.36651   0.37094   0.36103  -0.22361
C          C       0.63174   0.62955   0.36507  -0.22134
C          C       0.62148   0.29535   0.63523  -0.06682
C          C       0.37320   0.70223   0.63353  -0.06587
C          C       0.39342   0.30418   0.33507  -0.06456
C          C       0.59982   0.68592   0.32182  -0.06471
C          C       0.66625   0.24803   0.67820  -0.15002
C          C       0.32780   0.74918   0.67616  -0.14948
C          C       0.34736   0.25781   0.29240  -0.15077
C          C       0.64481   0.73264   0.27872  -0.14755
C          C       0.72471   0.27384   0.72659   0.04864
C          C       0.26974   0.72305   0.72454   0.04932
C          C       0.27252   0.27724   0.27319   0.04731
C          C       0.72416   0.72476   0.27723   0.04662
C          C       0.73568   0.34838   0.73100  -0.14794
C          C       0.25851   0.64849   0.72763  -0.14468
C          C       0.24546   0.34433   0.29804  -0.14960
C          C       0.75647   0.66838   0.32058  -0.14714
O          O       0.50043   0.42010   0.61678  -0.61854
O          O       0.49590   0.57647   0.61771  -0.61878
O          O       0.49882   0.42037   0.38346  -0.61852
O          O       0.50055   0.57936   0.38595  -0.61784
O          O       0.61101   0.50265   0.41401  -0.61571
O          O       0.38840   0.49641   0.41081  -0.61528
O          O       0.38560   0.50012   0.58951  -0.61178
O          O       0.61071   0.49672   0.58981  -0.61454
O          O       0.58078   0.60363   0.49953  -0.61888
O          O       0.41860   0.39557   0.49621  -0.62187
O          O       0.41742   0.60131   0.50452  -0.62164
O          O       0.58109   0.39562   0.50423  -0.62060
O          O       0.00033   0.92011   0.11706  -0.61897
O          O       0.99612   0.07646   0.11730  -0.61682
O          O       0.99487   0.92019   0.88663  -0.61940
O          O       0.00267   0.07644   0.88605  -0.61799
O          O       0.88555   0.99686   0.91407  -0.61163
O          O       0.11156   0.00021   0.91395  -0.61482
O          O       0.11146   0.99566   0.09342  -0.60538
O          O       0.88507   0.00227   0.08998  -0.60877
O          O       0.91809   0.10228   0.00325  -0.62350
O          O       0.08078   0.89566   0.00414  -0.62759
O          O       0.08133   0.10074   0.00033  -0.62215
O          O       0.91529   0.89578   0.00003  -0.62547

