data_crystal

_audit_creation_method 'AiiDA-DDEC plugin'

_cell_length_a        12.91606
_cell_length_b        12.90561
_cell_length_c        12.67658

_cell_angle_alpha     90.00323
_cell_angle_beta     89.99128
_cell_angle_gamma     90.09608

_symmetry_space_group_name_Hall 'P 1'
_symmetry_space_group_name_H-M  'P 1'

loop_
_symmetry_equiv_pos_as_xyz
 'x,y,z'

loop_
_atom_site_label
_atom_site_type_symbol
_atom_site_fract_x
_atom_site_fract_y
_atom_site_fract_z
_atom_site_charge
B          B       0.89274   0.91064   0.87203   0.80728
B          B       0.89121   0.13458   0.10302   0.80334
B          B       0.11661   0.91408   0.09865   0.80565
B          B       0.10932   0.13968   0.86854   0.80505
B          B       0.38920   0.41435   0.37028   0.80471
B          B       0.61300   0.41277   0.60217   0.80602
B          B       0.38987   0.63783   0.59855   0.80822
B          B       0.61869   0.63383   0.37275   0.80851
P          P       0.11049   0.13341   0.09357   1.30485
P          P       0.89775   0.91484   0.09718   1.30823
P          P       0.89030   0.13060   0.87802   1.30721
P          P       0.11174   0.92009   0.87374   1.30728
P          P       0.60907   0.41405   0.37753   1.30538
P          P       0.39849   0.63348   0.37308   1.30862
P          P       0.61023   0.63231   0.59823   1.30707
P          P       0.39268   0.41839   0.59495   1.30358
H          H       0.94222   0.73515   0.75054   0.10607
H          H       0.82710   0.62371   0.64238   0.11227
H          H       0.56613   0.81481   0.72675   0.11431
H          H       0.68231   0.92555   0.83542   0.10524
H          H       0.71389   0.26226   0.93055   0.11067
H          H       0.60465   0.37615   0.81850   0.10876
H          H       0.77829   0.28448   0.54443   0.10139
H          H       0.88756   0.17022   0.65503   0.11520
H          H       0.25974   0.25096   0.42793   0.10524
H          H       0.15124   0.13555   0.31672   0.11687
H          H       0.24803   0.30372   0.03941   0.11539
H          H       0.35637   0.41889   0.15135   0.10979
H          H       0.23499   0.58574   0.22277   0.10902
H          H       0.12053   0.69938   0.11693   0.10321
H          H       0.27561   0.96854   0.24039   0.10024
H          H       0.39047   0.85587   0.34653   0.10884
H          H       0.67569   0.13824   0.11896   0.10665
H          H       0.56185   0.24873   0.22963   0.11489
H          H       0.83125   0.39836   0.36098   0.11323
H          H       0.94435   0.28801   0.25006   0.10628
H          H       0.17290   0.42373   0.63322   0.11644
H          H       0.05806   0.31247   0.74233   0.10724
H          H       0.31990   0.12681   0.83299   0.10966
H          H       0.43561   0.23819   0.72458   0.11530
H          H       0.32305   0.83929   0.56069   0.09993
H          H       0.21476   0.95564   0.67103   0.11493
H          H       0.18522   0.71298   0.90339   0.10751
H          H       0.29290   0.59772   0.79212   0.10705
H          H       0.78242   0.57921   0.23594   0.10005
H          H       0.89613   0.69273   0.12876   0.11044
H          H       0.73063   0.96085   0.24152   0.10788
H          H       0.61769   0.84646   0.34894   0.10498
C          C       0.81869   0.20541   0.17572  -0.19127
C          C       0.68912   0.33129   0.30109  -0.22734
C          C       0.19037   0.84253   0.16942  -0.18926
C          C       0.32023   0.71331   0.29152  -0.22303
C          C       0.18061   0.21203   0.79608  -0.19687
C          C       0.31152   0.33777   0.67254  -0.23129
C          C       0.82050   0.83805   0.80125  -0.19629
C          C       0.68941   0.71230   0.67822  -0.22699
C          C       0.80784   0.20949   0.80012  -0.22966
C          C       0.68370   0.33883   0.67327  -0.19474
C          C       0.19262   0.21295   0.17123  -0.23064
C          C       0.31653   0.34298   0.29803  -0.19589
C          C       0.19287   0.84169   0.79402  -0.22959
C          C       0.31719   0.71049   0.66904  -0.19413
C          C       0.82018   0.83403   0.17810  -0.22652
C          C       0.69210   0.70461   0.30105  -0.19177
C          C       0.85995   0.75246   0.74590  -0.06599
C          C       0.79556   0.68970   0.68491  -0.06450
C          C       0.64834   0.79765   0.73262  -0.07117
C          C       0.71411   0.85928   0.79337  -0.05781
C          C       0.72748   0.26723   0.84601  -0.07173
C          C       0.66640   0.33095   0.78245  -0.06335
C          C       0.76402   0.27975   0.62892  -0.06673
C          C       0.82581   0.21550   0.69089  -0.06772
C          C       0.25762   0.26258   0.34291  -0.06300
C          C       0.19614   0.19778   0.28097  -0.07596
C          C       0.25067   0.29287   0.12453  -0.07015
C          C       0.31173   0.35689   0.18804  -0.06940
C          C       0.24398   0.66947   0.22618  -0.06924
C          C       0.18033   0.73406   0.16624  -0.06622
C          C       0.26699   0.88474   0.23554  -0.06391
C          C       0.33143   0.82157   0.29612  -0.07040
C          C       0.71033   0.19521   0.17169  -0.06718
C          C       0.64556   0.25716   0.23324  -0.07218
C          C       0.79732   0.34169   0.30754  -0.07314
C          C       0.86066   0.27917   0.24525  -0.06464
C          C       0.20486   0.35864   0.67704  -0.07063
C          C       0.14061   0.29593   0.73846  -0.06917
C          C       0.28737   0.19187   0.78949  -0.06564
C          C       0.35300   0.25378   0.72879  -0.07596
C          C       0.29364   0.81172   0.63618  -0.06121
C          C       0.23227   0.87740   0.69732  -0.07270
C          C       0.21519   0.74058   0.82819  -0.06679
C          C       0.27648   0.67623   0.76579  -0.06678
C          C       0.77118   0.66278   0.23799  -0.06228
C          C       0.83506   0.72622   0.17697  -0.06476
C          C       0.74156   0.87737   0.24047  -0.06871
C          C       0.67873   0.81259   0.30095  -0.06131
O          O       0.89090   0.02559   0.14466  -0.61529
O          O       0.88924   0.02008   0.83035  -0.61788
O          O       0.84862   0.13499   0.99245  -0.61987
O          O       0.85342   0.91135   0.98367  -0.62523
O          O       0.11539   0.02255   0.14051  -0.61491
O          O       0.15633   0.91632   0.98712  -0.62246
O          O       0.11431   0.03098   0.82695  -0.61626
O          O       0.15143   0.14044   0.97928  -0.61731
O          O       0.00157   0.87177   0.86961  -0.61752
O          O       0.00074   0.17774   0.86953  -0.61980
O          O      -0.00102   0.17697   0.10359  -0.61602
O          O       0.00934   0.87015   0.09938  -0.62112
O          O       0.38554   0.52959   0.64046  -0.61628
O          O       0.65180   0.41147   0.49152  -0.62224
O          O       0.50317   0.37353   0.60391  -0.61538
O          O       0.49751   0.37058   0.36940  -0.61412
O          O       0.34942   0.41582   0.48076  -0.62037
O          O       0.39098   0.52214   0.32756  -0.61655
O          O       0.61484   0.52087   0.64496  -0.61970
O          O       0.49934   0.67751   0.60346  -0.61941
O          O       0.35352   0.64036   0.48624  -0.62230
O          O       0.51040   0.67666   0.36966  -0.62146
O          O       0.61898   0.52498   0.33161  -0.61623
O          O       0.65626   0.63508   0.48498  -0.62266

