data_crystal

_audit_creation_method 'AiiDA-DDEC plugin'

_cell_length_a        21.43944
_cell_length_b        20.39407
_cell_length_c        12.72008

_cell_angle_alpha     89.11133
_cell_angle_beta     89.67068
_cell_angle_gamma     89.87957

_symmetry_space_group_name_Hall 'P 1'
_symmetry_space_group_name_H-M  'P 1'

loop_
_symmetry_equiv_pos_as_xyz
 'x,y,z'

loop_
_atom_site_label
_atom_site_type_symbol
_atom_site_fract_x
_atom_site_fract_y
_atom_site_fract_z
_atom_site_charge
H          H       0.24898   0.44247   0.24142   0.11702
H          H       0.75173   0.54961   0.23819   0.11331
H          H       0.42306   0.77012   0.73975   0.11677
H          H       0.56890   0.23831   0.74523   0.11790
H          H       0.74304   0.06571   0.74371   0.11649
H          H       0.24466   0.94439   0.73765   0.11759
H          H       0.93110   0.74101   0.25080   0.11850
H          H       0.08288   0.27139   0.23388   0.11719
H          H       0.15789   0.43283   0.15437   0.06609
H          H       0.84026   0.55986   0.14549   0.06733
H          H       0.43676   0.82576   0.86432   0.06318
H          H       0.56300   0.15600   0.84730   0.06514
H          H       0.65910   0.06222   0.64805   0.06495
H          H       0.34132   0.93191   0.65603   0.06760
H          H       0.93925   0.65326   0.34443   0.06710
H          H       0.07012   0.33972   0.34979   0.06320
H          H       0.12777   0.38458   0.99644   0.10514
H          H       0.86969   0.60408   0.97843   0.10997
H          H       0.39297   0.86929   0.01278   0.10962
H          H       0.61104   0.11103   0.99596   0.10702
H          H       0.62283   0.10776   0.48970   0.10822
H          H       0.38469   0.88100   0.50851   0.10335
H          H       0.89131   0.59922   0.48520   0.10950
H          H       0.11488   0.38409   0.49557   0.10806
H          H       0.06919   0.38795   0.83059   0.10945
H          H       0.92932   0.59472   0.81305   0.11304
H          H       0.40063   0.93449   0.17346   0.11359
H          H       0.60662   0.04543   0.16001   0.11099
H          H       0.56318   0.09834   0.32574   0.11317
H          H       0.44623   0.88414   0.34437   0.10938
H          H       0.89665   0.53207   0.64753   0.11029
H          H       0.10623   0.44662   0.65916   0.11170
H          H       0.29359   0.43149   0.42156   0.11584
H          H       0.70757   0.56374   0.41851   0.11425
H          H       0.41195   0.73647   0.55442   0.11782
H          H       0.57784   0.27998   0.56106   0.11610
H          H       0.78295   0.08062   0.92534   0.11712
H          H       0.19900   0.93460   0.91819   0.11575
H          H       0.92016   0.78166   0.06624   0.11676
H          H       0.09238   0.24009   0.04623   0.11801
H          H       0.13735   0.60599   0.34265   0.11144
H          H       0.87045   0.39443   0.35570   0.11212
H          H       0.61471   0.82223   0.67821   0.11580
H          H       0.38353   0.16915   0.68094   0.11618
H          H       0.65729   0.88374   0.84111   0.11461
H          H       0.35786   0.10600   0.83735   0.11097
H          H       0.11804   0.67667   0.18159   0.11780
H          H       0.89012   0.32185   0.18410   0.11816
H          H       0.04686   0.59730   0.85856   0.10926
H          H       0.94791   0.38619   0.86623   0.10861
H          H       0.60098   0.91890   0.16197   0.10595
H          H       0.40574   0.05872   0.15994   0.10619
H          H       0.56421   0.88767   0.36027   0.10717
H          H       0.44532   0.09568   0.34913   0.10718
H          H       0.09374   0.57060   0.66920   0.10365
H          H       0.90916   0.40559   0.67361   0.10734
H          H       0.10554   0.59321   0.02549   0.10377
H          H       0.88781   0.39658   0.03214   0.10158
H          H       0.59294   0.85367  -0.00079   0.10548
H          H       0.41104   0.12501   0.99528   0.10567
H          H       0.62494   0.89796   0.52481   0.10244
H          H       0.38429   0.09171   0.51500   0.10440
H          H       0.08774   0.63847   0.50528   0.10591
H          H       0.91877   0.34115   0.50998   0.10810
H          H       0.18229   0.59359   0.52438   0.10863
H          H       0.82567   0.40995   0.53692   0.10812
H          H       0.60336   0.78448   0.49205   0.11394
H          H       0.39244   0.21372   0.49637   0.11449
H          H       0.69801   0.89925   0.02438   0.11203
H          H       0.31132   0.09548   0.01921   0.10899
H          H       0.10684   0.71911   0.99650   0.11475
H          H       0.89900   0.28467   0.99692   0.11558
H          H       0.41366   0.31725   0.86549   0.06992
H          H       0.57514   0.69117   0.85878   0.06411
H          H       0.31686   0.58616   0.12299   0.06833
H          H       0.67888   0.42338   0.12751   0.07039
H          H       0.92570   0.19648   0.36187   0.06569
H          H       0.08253   0.82364   0.36738   0.06938
H          H       0.81732   0.92240   0.63207   0.07011
H          H       0.17520   0.08785   0.61628   0.06951
H          H       0.38446   0.34545   0.68865   0.10817
H          H       0.60779   0.65809   0.68969   0.10735
H          H       0.34594   0.61981   0.29663   0.10718
H          H       0.64953   0.38921   0.30186   0.11068
H          H       0.88961   0.16176   0.19525   0.10748
H          H       0.11130   0.85020   0.19020   0.10800
H          H       0.84368   0.89111   0.80841   0.10854
H          H       0.14333   0.12394   0.78864   0.10619
H          H       0.39858   0.41651   0.53079   0.10550
H          H       0.59500   0.58984   0.53229   0.10641
H          H       0.41363   0.60738   0.45259   0.10495
H          H       0.58125   0.40134   0.45800   0.10506
H          H       0.89932   0.09169   0.03859   0.10663
H          H       0.09630   0.91906   0.03068   0.10506
H          H       0.91267   0.90393   0.96190   0.10501
H          H       0.07758   0.11059   0.94753   0.10453
H          H       0.46235   0.41231   0.35574   0.10908
H          H       0.53649   0.59840   0.35722   0.11082
H          H       0.40718   0.54451   0.62946   0.11055
H          H       0.58482   0.46189   0.63043   0.10940
H          H       0.95809   0.09981   0.85565   0.11055
H          H       0.03540   0.91262   0.85792   0.11024
H          H       0.90898   0.96272   0.13218   0.10998
H          H       0.08882   0.04637   0.12402   0.10987
H          H       0.39850   0.42689   0.19548   0.11044
H          H       0.60112   0.58422   0.19710   0.10374
H          H       0.42160   0.60904   0.79113   0.11123
H          H       0.56916   0.39412   0.79186   0.11054
H          H       0.89546   0.08343   0.69534   0.10039
H          H       0.10001   0.92695   0.69752   0.10883
H          H       0.92538   0.89642   0.29428   0.11076
H          H       0.07699   0.11152   0.28557   0.11193
H          H       0.41258   0.24821   0.99712   0.11269
H          H       0.60620   0.69815   0.01455   0.11674
H          H       0.23636   0.56736   0.00957   0.11164
H          H       0.75646   0.43741   0.01662   0.11113
H          H       0.89418   0.18067   0.52439   0.11629
H          H       0.08790   0.75706   0.49890   0.11321
H          H       0.74723   0.92679   0.51149   0.11103
H          H       0.26130   0.06278   0.50732   0.11088
H          H       0.39608   0.21464   0.18503   0.11589
H          H       0.62091   0.73587   0.19789   0.11510
H          H       0.19514   0.58058   0.82718   0.11048
H          H       0.80070   0.42097   0.83713   0.11014
H          H       0.87851   0.21912   0.70756   0.11575
H          H       0.10484   0.72375   0.68614   0.11514
H          H       0.70844   0.91003   0.32973   0.11186
H          H       0.30180   0.07748   0.32345   0.10920
H          H       0.56083   0.37637   0.09082   0.11412
H          H       0.41003   0.67296   0.07699   0.11427
H          H       0.38573   0.44707   0.89129   0.11615
H          H       0.61310   0.56140   0.88475   0.11395
H          H       0.09295   0.19469   0.56417   0.11525
H          H       0.92992   0.87313   0.59284   0.11369
H          H       0.88038   0.06736   0.39153   0.11228
H          H       0.10767   0.95024   0.38950   0.11665
H          H       0.54585   0.34006   0.27838   0.09795
H          H       0.42622   0.70912   0.26334   0.10887
H          H       0.34357   0.46003   0.70888   0.09954
H          H       0.65775   0.54447   0.70460   0.10022
H          H       0.07643   0.23079   0.75030   0.11067
H          H       0.94650   0.83833   0.78073   0.09959
H          H       0.83985   0.05138   0.20931   0.09903
H          H       0.14993   0.96359   0.20627   0.09796
C          C       0.93001   0.43391   0.88926  -0.13399
C          C       0.06611   0.55081   0.88670  -0.13426
C          C       0.45097   0.07117   0.12580  -0.14092
C          C       0.55529   0.90674   0.13079  -0.14039
C          C       0.43087   0.04849   0.38225  -0.13851
C          C       0.57849   0.93594   0.38667  -0.13685
C          C       0.95450   0.39997   0.63582  -0.14127
C          C       0.04909   0.57835   0.63052  -0.14174
C          C       0.23265   0.47400   0.30409  -0.18949
C          C       0.76928   0.52031   0.30375  -0.18993
C          C       0.46232   0.77572   0.68588  -0.17027
C          C       0.53118   0.23017   0.69019  -0.17901
C          C       0.73115   0.03050   0.80564  -0.18573
C          C       0.26089   0.97592   0.79998  -0.18681
C          C       0.96861   0.73347   0.19433  -0.17667
C          C       0.04320   0.27730   0.18173  -0.17356
C          C       0.14940   0.48320   0.12541   0.08386
C          C       0.85008   0.50910   0.12236   0.08224
C          C       0.48556   0.83226   0.88833   0.09115
C          C       0.51541   0.15247   0.87974   0.08917
C          C       0.65518   0.01123   0.62187   0.08710
C          C       0.34922   0.98187   0.62480   0.08368
C          C       0.98586   0.65386   0.38011   0.08770
C          C       0.02239   0.33800   0.38187   0.08914
C          C       0.12085   0.48875   0.02234   0.04825
C          C       0.87685   0.50095   0.01839   0.04840
C          C       0.49280   0.85845   0.99304   0.04752
C          C       0.51095   0.12172   0.98322   0.04731
C          C       0.62744   0.00320   0.51908   0.04876
C          C       0.37993   0.98628   0.52277   0.04952
C          C       0.98965   0.62317   0.48358   0.04801
C          C       0.01652   0.36126   0.48866   0.04752
C          C       0.11142   0.43142   0.96479  -0.11206
C          C       0.88642   0.55632   0.95343  -0.10899
C          C       0.43857   0.87885   0.04650  -0.11206
C          C       0.56609   0.10047   0.03278  -0.11041
C          C       0.61133   0.05949   0.46011  -0.11158
C          C       0.39668   0.92802   0.47214  -0.11128
C          C       0.93542   0.59432   0.52671  -0.11279
C          C       0.06996   0.38796   0.53548  -0.11482
C          C       0.07852   0.43350   0.87091  -0.13611
C          C       0.91958   0.55084   0.85976  -0.13601
C          C       0.44285   0.91524   0.13746  -0.13703
C          C       0.56351   0.06372   0.12564  -0.13262
C          C       0.57798   0.05409   0.36737  -0.13444
C          C       0.43127   0.92993   0.37939  -0.13454
C          C       0.93848   0.55666   0.61843  -0.13024
C          C       0.06505   0.42290   0.62789  -0.13228
C          C       0.05353   0.49278   0.83217   0.07416
C          C       0.94464   0.49032   0.82901   0.07440
C          C       0.50127   0.93202   0.17857   0.07520
C          C       0.50591   0.04668   0.17187   0.07488
C          C       0.55894   0.99256   0.33134   0.07548
C          C       0.45030   0.99008   0.33447   0.07356
C          C       0.99567   0.54667   0.67007   0.07399
C          C       0.00660   0.43251   0.67622   0.07460
C          C       0.25799   0.46810   0.40409  -0.13530
C          C       0.74413   0.52798   0.40361  -0.13417
C          C       0.45586   0.75600   0.58274  -0.13435
C          C       0.53609   0.25447   0.58801  -0.13225
C          C       0.75405   0.03866   0.90644  -0.13587
C          C       0.23487   0.97081   0.90014  -0.13550
C          C       0.96262   0.75711   0.09197  -0.13314
C          C       0.04859   0.25870   0.07771  -0.13308
C          C       0.23865   0.51021   0.48474   0.15354
C          C       0.76495   0.48880   0.48838   0.15281
C          C       0.50633   0.75981   0.51122   0.16082
C          C       0.48698   0.24678   0.51604   0.15890
C          C       0.74112   0.99205   0.98649   0.15688
C          C       0.25436   0.01274   0.98038   0.15337
C          C       0.01165   0.75019   0.01861   0.15942
C          C       0.99704   0.26214   0.00932   0.15768
C          C       0.17115   0.56763   0.36149  -0.15232
C          C       0.83494   0.43151   0.37071  -0.14788
C          C       0.57061   0.80293   0.65019  -0.14585
C          C       0.42591   0.19342   0.65357  -0.15025
C          C       0.68473   0.92661   0.86115  -0.14834
C          C       0.32317   0.06864   0.85656  -0.15688
C          C       0.07476   0.69935   0.15522  -0.15176
C          C       0.93393   0.30315   0.15278  -0.14754
C          C       0.18838   0.52348   0.28151   0.21222
C          C       0.81519   0.47206   0.28574   0.21024
C          C       0.51985   0.80044   0.72200   0.21300
C          C       0.47634   0.19787   0.72451   0.21183
C          C       0.69554   0.97461   0.78147   0.21224
C          C       0.30606   0.02437   0.77715   0.21368
C          C       0.02439   0.70275   0.22740   0.20993
C          C       0.98584   0.30134   0.22101   0.21284
C          C       0.09903   0.54887   0.98047  -0.09298
C          C       0.89662   0.43933   0.98253  -0.09727
C          C       0.55114   0.87053   0.03931  -0.09173
C          C       0.45353   0.10811   0.03309  -0.09413
C          C       0.61221   0.94130   0.47907  -0.09459
C          C       0.39655   0.04664   0.47526  -0.09251
C          C       0.04608   0.61605   0.53862  -0.09427
C          C       0.95938   0.36453   0.54350  -0.09261
C          C       0.19531   0.56063   0.46162  -0.14144
C          C       0.81075   0.44020   0.47061  -0.14118
C          C       0.56440   0.78282   0.54721  -0.13464
C          C       0.43094   0.21718   0.55126  -0.13771
C          C       0.70652   0.93537   0.96217  -0.14111
C          C       0.29827   0.06249   0.95675  -0.14083
C          C       0.06855   0.72215   0.05261  -0.13852
C          C       0.93893   0.28346   0.04929  -0.13326
C          C       0.46107   0.33692   0.85496   0.07990
C          C       0.52981   0.66626   0.85371   0.08305
C          C       0.33824   0.53745   0.13425   0.08235
C          C       0.65735   0.47201   0.13635   0.07581
C          C       0.97013   0.16994   0.35378   0.08632
C          C       0.03449   0.84159   0.35714   0.07936
C          C       0.83828   0.97130   0.63938   0.07923
C          C       0.15538   0.03873   0.63036   0.08359
C          C       0.47489   0.36707   0.75313   0.05124
C          C       0.51662   0.63588   0.75361   0.04812
C          C       0.36866   0.52484   0.23444   0.04786
C          C       0.62764   0.48481   0.23678   0.04732
C          C       0.98153   0.13899   0.25337   0.04686
C          C       0.02034   0.87092   0.25522   0.04970
C          C       0.86717   0.98528   0.73936   0.04903
C          C       0.12517   0.02681   0.73142   0.04816
C          C       0.42849   0.37094   0.67583  -0.11032
C          C       0.56382   0.63300   0.67670  -0.11070
C          C       0.37132   0.57416   0.30997  -0.10939
C          C       0.62449   0.43502   0.31400  -0.10717
C          C       0.93315   0.13604   0.17965  -0.10721
C          C       0.06685   0.87477   0.17720  -0.10866
C          C       0.86944   0.93656   0.81834  -0.10788
C          C       0.12028   0.07730   0.80465  -0.10922
C          C       0.43678   0.41021   0.58590  -0.14231
C          C       0.55629   0.59529   0.58706  -0.14275
C          C       0.40857   0.56668   0.39909  -0.14178
C          C       0.58689   0.44230   0.40307  -0.14364
C          C       0.93907   0.09751   0.09032  -0.14715
C          C       0.05803   0.91289   0.08636  -0.14390
C          C       0.90713   0.94447   0.90631  -0.14469
C          C       0.08367   0.06946   0.89506  -0.14124
C          C       0.49216   0.44523   0.57051   0.07424
C          C       0.50075   0.56119   0.57081   0.07442
C          C       0.44260   0.50887   0.41551   0.07534
C          C       0.55295   0.50015   0.41759   0.07581
C          C       0.99430   0.06307   0.07105   0.07776
C          C       0.00220   0.94716   0.07098   0.07538
C          C       0.94127   0.00219   0.91895   0.07711
C          C       0.05168   0.01069   0.91435   0.07615
C          C       0.43569   0.45726   0.34389  -0.13412
C          C       0.56180   0.55276   0.34566  -0.13168
C          C       0.45099   0.56992   0.64243  -0.13300
C          C       0.54122   0.43555   0.64263  -0.13390
C          C       0.93276   0.05415   0.84571  -0.12998
C          C       0.06041   0.95838   0.84445  -0.13501
C          C       0.95310   0.93728   0.14394  -0.13462
C          C       0.04515   0.07184   0.13945  -0.13217
C          C       0.40012   0.46509   0.25420  -0.09551
C          C       0.59780   0.54516   0.25605  -0.09551
C          C       0.45881   0.60574   0.73296  -0.09595
C          C       0.53276   0.39788   0.73288  -0.09550
C          C       0.89750   0.04551   0.75627  -0.09713
C          C       0.09619   0.96615   0.75427  -0.09561
C          C       0.96193   0.90048   0.23490  -0.09583
C          C       0.03884   0.10813   0.22991  -0.09774
C          C       0.44055   0.26969   0.05873  -0.17154
C          C       0.56618   0.70193   0.06704  -0.16582
C          C       0.26075   0.54544   0.94356  -0.18231
C          C       0.73424   0.45982   0.94837  -0.18369
C          C       0.93418   0.19400   0.57168  -0.16817
C          C       0.05797   0.77635   0.56047  -0.17308
C          C       0.76865   0.95282   0.44539  -0.17811
C          C       0.23595   0.04291   0.44117  -0.18634
C          C       0.43177   0.25019   0.16288  -0.13358
C          C       0.57494   0.72267   0.16931  -0.12701
C          C       0.23741   0.55248   0.84233  -0.13596
C          C       0.75924   0.45086   0.84872  -0.13379
C          C       0.92513   0.21474   0.67414  -0.12564
C          C       0.06718   0.75702   0.66441  -0.13227
C          C       0.74651   0.94374   0.34436  -0.13321
C          C       0.25895   0.05057   0.33933  -0.13315
C          C       0.47000   0.27495   0.24301   0.15664
C          C       0.52459   0.72558   0.24116   0.15836
C          C       0.26696   0.52171   0.75698   0.15554
C          C       0.73214   0.48169   0.76034   0.15506
C          C       0.97630   0.22769   0.73999   0.15556
C          C       0.02704   0.77895   0.74497   0.15663
C          C       0.77149   0.97967   0.25852   0.15732
C          C       0.22802   0.02221   0.25395   0.15074
C          C       0.52540   0.34049   0.11281  -0.14079
C          C       0.45572   0.68790   0.10467  -0.14305
C          C       0.34404   0.47610   0.87574  -0.14343
C          C       0.65427   0.53101   0.87286  -0.14613
C          C       0.04630   0.20106   0.59660  -0.14552
C          C       0.96788   0.84031   0.61505  -0.13956
C          C       0.84242   0.03348   0.37650  -0.14399
C          C       0.15021   0.97778   0.37357  -0.14897
C          C       0.48754   0.31554   0.03160   0.21880
C          C       0.50591   0.68498   0.03169   0.22091
C          C       0.31458   0.50705   0.96191   0.21582
C          C       0.68148   0.50030   0.96218   0.21364
C          C       0.99526   0.18757   0.53003   0.22110
C          C       0.00819   0.81884   0.53370   0.21920
C          C       0.81696   0.99815   0.46340   0.21694
C          C       0.18082   0.00668   0.45963   0.21910
C          C       0.51697   0.32085   0.21625  -0.14186
C          C       0.46444   0.70775   0.20696  -0.13870
C          C       0.32106   0.48356   0.77508  -0.14670
C          C       0.67868   0.52151   0.77348  -0.14234
C          C       0.03736   0.22104   0.69892  -0.13826
C          C       0.97699   0.82120   0.71850  -0.14065
C          C       0.82038   0.02446   0.27599  -0.14323
C          C       0.17311   0.98558   0.27255  -0.14230
C          C       0.50422   0.99019   0.25378   0.00599
C          C       0.00006   0.49035   0.75163   0.00456
C          C       0.49699   0.50400   0.49359   0.00416
C          C       0.99733   0.00581   0.99372   0.00286
N          N       0.16160   0.53341   0.18266  -0.29151
N          N       0.84110   0.46026   0.18694  -0.28900
N          N       0.53179   0.82181   0.82424  -0.30997
N          N       0.46728   0.17097   0.82540  -0.30125
N          N       0.67110   0.96226   0.68212  -0.30005
N          N       0.33446   0.03292   0.67880  -0.29122
N          N       0.03377   0.67645   0.32845  -0.29869
N          N       0.97535   0.32158   0.32429  -0.30142
N          N       0.26548   0.49938   0.58364  -0.14948
N          N       0.73673   0.50112   0.58555  -0.15111
N          N       0.49337   0.73981   0.40905  -0.15623
N          N       0.49833   0.27013   0.41373  -0.15366
N          N       0.76552   0.00549   0.08564  -0.15264
N          N       0.22765   0.00199   0.07990  -0.15101
N          N      -0.00065   0.77292   0.91642  -0.15421
N          N       0.00938   0.24368   0.90574  -0.15868
N          N       0.50122   0.33898   0.93077  -0.29657
N          N       0.49093   0.66213   0.93219  -0.30189
N          N       0.34063   0.49478   0.06009  -0.28621
N          N       0.65458   0.51415   0.05922  -0.28961
N          N       0.00980   0.16514   0.43016  -0.29627
N          N       0.99384   0.84202   0.43317  -0.29604
N          N       0.84148   0.01283   0.56132  -0.29523
N          N       0.15452   0.99483   0.55812  -0.28221
N          N       0.45859   0.25086   0.34504  -0.15543
N          N       0.53917   0.74510   0.34319  -0.16067
N          N       0.23913   0.53123   0.65849  -0.15591
N          N       0.76158   0.47022   0.66376  -0.15327
N          N       0.96200   0.24462   0.84376  -0.15901
N          N       0.03998   0.75575   0.84682  -0.15888
N          N       0.74514   0.96767   0.16021  -0.15557
N          N       0.25530   0.03219   0.15460  -0.15444

