data_crystal

_audit_creation_method 'AiiDA-DDEC plugin'

_cell_length_a        15.84077
_cell_length_b        15.87578
_cell_length_c        13.16549

_cell_angle_alpha     89.83424
_cell_angle_beta     89.65225
_cell_angle_gamma     91.74063

_symmetry_space_group_name_Hall 'P 1'
_symmetry_space_group_name_H-M  'P 1'

loop_
_symmetry_equiv_pos_as_xyz
 'x,y,z'

loop_
_atom_site_label
_atom_site_type_symbol
_atom_site_fract_x
_atom_site_fract_y
_atom_site_fract_z
_atom_site_charge
H          H       0.36287   0.74326   0.54857   0.11590
H          H       0.09091   0.87021   0.07700   0.11566
H          H       0.36824   0.92257   0.83093   0.11310
H          H       0.13480   0.59739   0.33000   0.11410
H          H       0.64863   0.76177   0.70042   0.11486
H          H       0.90951   0.62177   0.17238   0.11560
H          H       0.63588   0.58354   0.41807   0.11295
H          H       0.85628   0.89479   0.91848   0.11433
H          H       0.89913   0.12853   0.08221   0.11510
H          H       0.58436   0.38150   0.57757   0.11612
H          H       0.87324   0.39963   0.33028   0.11634
H          H       0.63325   0.09589   0.83427   0.11535
H          H       0.09418   0.36853   0.16572   0.11617
H          H       0.41184   0.12708   0.67323   0.11649
H          H       0.12032   0.09257   0.91817   0.11788
H          H       0.37568   0.41793   0.41566   0.11718
H          H       0.63209   0.72031   0.51983   0.10934
H          H       0.93257   0.65751   0.99068   0.09613
H          H       0.15712   0.06878   0.73781   0.09703
H          H       0.33757   0.44023   0.23617   0.09610
H          H       0.37937   0.78535   0.72855   0.10882
H          H       0.06790   0.83435   0.25865   0.09640
H          H       0.83590   0.42285   0.51073   0.09707
H          H       0.67211   0.07289   0.01321   0.09510
H          H       0.07001   0.32982   0.98616   0.09706
H          H       0.43421   0.16272   0.49164   0.09786
H          H       0.67374   0.56106   0.23804   0.09620
H          H       0.81746   0.91824   0.73865   0.09497
H          H       0.92393   0.16676   0.26199   0.09682
H          H       0.56277   0.34522   0.75891   0.09792
H          H       0.33050   0.94486   0.01065   0.09766
H          H       0.17289   0.57459   0.51048   0.09545
H          H       0.59672   0.74875   0.36018   0.06459
H          H       0.91678   0.74409   0.86083   0.06442
H          H       0.24533   0.08736   0.60703   0.06880
H          H       0.25433   0.42733   0.10736   0.06330
H          H       0.41310   0.75658   0.88571   0.06379
H          H       0.08134   0.75169   0.39009   0.06497
H          H       0.75289   0.41246   0.64284   0.06806
H          H       0.74440   0.07010   0.14502   0.06169
H          H       0.07369   0.25116   0.85469   0.06377
H          H       0.41431   0.25041   0.36027   0.06735
H          H       0.75378   0.57029   0.10823   0.06349
H          H       0.72564   0.90932   0.61438   0.06301
H          H       0.92088   0.24506   0.39352   0.06383
H          H       0.58260   0.25630   0.88908   0.06679
H          H       0.24512   0.92814   0.13953   0.06417
H          H       0.26742   0.59364   0.63534   0.06414
H          H       0.64265   0.71881   0.18741   0.11163
H          H       0.86992   0.77159   0.69045   0.10557
H          H       0.27527   0.13011   0.43121   0.10891
H          H       0.22576   0.38078   0.93602   0.10720
H          H       0.36408   0.78566   0.05806   0.10970
H          H       0.12766   0.72375   0.56126   0.10465
H          H       0.72244   0.37195   0.81967   0.10826
H          H       0.77196   0.11336   0.31511   0.10548
H          H       0.11801   0.22203   0.68392   0.10686
H          H       0.36872   0.28105   0.18617   0.10959
H          H       0.78268   0.61635   0.93715   0.10573
H          H       0.69580   0.86598   0.44478   0.09986
H          H       0.87749   0.27326   0.56435   0.10754
H          H       0.62957   0.22444   0.06087   0.11001
H          H       0.21751   0.88154   0.31127   0.10525
H          H       0.29973   0.63980   0.80528   0.10253
H          H       0.63044   0.62848   0.03491   0.10173
H          H       0.87541   0.86394   0.53841   0.10357
H          H       0.36805   0.12103   0.28059   0.10111
H          H       0.13452   0.38403   0.78455   0.10239
H          H       0.37222   0.87663   0.20986   0.10082
H          H       0.12206   0.63060   0.71245   0.10320
H          H       0.63004   0.38382   0.97027   0.10142
H          H       0.86353   0.10875   0.46691   0.10280
H          H       0.11122   0.12953   0.53325   0.10192
H          H       0.37931   0.37347   0.03521   0.10154
H          H       0.87498   0.61268   0.78524   0.09974
H          H       0.61038   0.87953   0.28921   0.09785
H          H       0.88530   0.36494   0.71565   0.10177
H          H       0.61976   0.13126   0.21220   0.10117
H          H       0.12543   0.88307   0.46329   0.10102
H          H       0.38675   0.62815   0.95994   0.09806
H          H       0.37916   0.55056   0.12688   0.10374
H          H       0.12156   0.95775   0.62647   0.10168
H          H       0.45148   0.87999   0.38407   0.10807
H          H       0.04434   0.62468   0.87794   0.10128
H          H       0.62229   0.96107   0.12086   0.10071
H          H       0.87743   0.53493   0.62111   0.10090
H          H       0.54864   0.62428   0.86238   0.10662
H          H       0.95323   0.86874   0.37029   0.10254
H          H       0.86824   0.03198   0.63255   0.10302
H          H       0.62579   0.46085   0.12999   0.09871
H          H       0.96181   0.37056   0.87823   0.10104
H          H       0.54644   0.13014   0.37785   0.10311
H          H       0.12908   0.46089   0.61684   0.10421
H          H       0.37124   0.04714   0.12134   0.09991
H          H       0.03191   0.12238   0.36964   0.10045
H          H       0.45174   0.37747   0.87335   0.10254
H          H       0.39209   0.63820   0.28116   0.11151
H          H       0.11439   0.86899   0.78140   0.11152
H          H       0.36290   0.89219   0.53766   0.10049
H          H       0.13233   0.61972   0.03198   0.11080
H          H       0.61364   0.87180   0.96767   0.10977
H          H       0.88482   0.62467   0.46700   0.10978
H          H       0.63629   0.60887   0.70824   0.10106
H          H       0.86566   0.87542   0.21610   0.11222
H          H       0.87719   0.12043   0.78645   0.11119
H          H       0.61477   0.37018   0.28259   0.11052
H          H       0.87276   0.37614   0.03321   0.11088
H          H       0.63005   0.11593   0.53484   0.11323
H          H       0.11899   0.37312   0.46208   0.11176
H          H       0.38238   0.13665   0.96758   0.11131
H          H       0.12087   0.11906   0.21475   0.11205
H          H       0.36763   0.38996   0.71674   0.11167
C          C       0.42522   0.74750   0.58282  -0.13994
C          C       0.05223   0.81532   0.09914  -0.13798
C          C       0.31342   0.95895   0.85078  -0.14173
C          C       0.18817   0.55923   0.34993  -0.13711
C          C       0.58633   0.75798   0.66590  -0.14174
C          C       0.94828   0.67659   0.15026  -0.13800
C          C       0.68844   0.54418   0.39793  -0.14241
C          C       0.80634   0.93738   0.89885  -0.13590
C          C       0.94108   0.18149   0.10171  -0.13564
C          C       0.54737   0.32544   0.59941  -0.13785
C          C       0.82060   0.43878   0.35068  -0.13597
C          C       0.68225   0.05219   0.85379  -0.13793
C          C       0.05249   0.31533   0.14629  -0.13592
C          C       0.44848   0.18329   0.65113  -0.13948
C          C       0.17528   0.05657   0.89788  -0.13892
C          C       0.32254   0.45651   0.39602  -0.13924
C          C       0.49564   0.73177   0.52000   0.20225
C          C       0.01317   0.76759   0.02121   0.19951
C          C       0.26680   0.99477   0.77126   0.19795
C          C       0.23245   0.52057   0.27016   0.19659
C          C       0.51583   0.77380   0.72863   0.20407
C          C       0.98718   0.72441   0.22821   0.19956
C          C       0.73203   0.50450   0.47725   0.20133
C          C       0.76730   0.98095   0.97887   0.19780
C          C       0.98273   0.22522   0.02136   0.19977
C          C       0.51018   0.27607   0.52160   0.19787
C          C       0.77669   0.47810   0.27144   0.20137
C          C       0.72067   0.00792   0.77389   0.20553
C          C       0.01124   0.27124   0.22665   0.20038
C          C       0.48547   0.23283   0.72889   0.19899
C          C       0.22212   0.02101   0.97730   0.20057
C          C       0.27832   0.49532   0.47576   0.20252
C          C       0.57680   0.73632   0.56439  -0.17058
C          C       0.96132   0.69722   0.04879  -0.17083
C          C       0.19654   0.04322   0.79695  -0.16830
C          C       0.30057   0.46929   0.29545  -0.16947
C          C       0.43474   0.76935   0.68415  -0.17007
C          C       0.03908   0.79472   0.20056  -0.17065
C          C       0.79918   0.45198   0.45153  -0.16865
C          C       0.70460   0.03883   0.95401  -0.16686
C          C       0.03848   0.29316   0.04583  -0.16821
C          C       0.46111   0.20386   0.54955  -0.17187
C          C       0.70997   0.53117   0.29715  -0.16904
C          C       0.78391   0.95061   0.79846  -0.17432
C          C       0.95527   0.20348   0.20220  -0.16962
C          C       0.53503   0.30467   0.70097  -0.17300
C          C       0.29193   0.97190   0.95165  -0.17082
C          C       0.21016   0.54652   0.45066  -0.17718
C          C       0.53458   0.71773   0.34793   0.06503
C          C       0.97686   0.77952   0.84907   0.06270
C          C       0.27919   0.02838   0.59743   0.06503
C          C       0.21931   0.48558   0.09731   0.06311
C          C       0.47479   0.78798   0.89952   0.06539
C          C       0.02197   0.71490   0.40115   0.06260
C          C       0.71915   0.47163   0.65138   0.06598
C          C       0.77957   0.01171   0.15288   0.06153
C          C       0.01480   0.21311   0.84731   0.06353
C          C       0.47431   0.28595   0.34864   0.06183
C          C       0.78822   0.51168   0.09821   0.06284
C          C       0.70011   0.97235   0.60287   0.07061
C          C       0.98024   0.28239   0.40099   0.06457
C          C       0.52229   0.22143   0.90116   0.06224
C          C       0.21003   0.98627   0.15021   0.06415
C          C       0.29591   0.53202   0.64726   0.06783
C          C       0.51985   0.68142   0.24783   0.05251
C          C       0.99000   0.81693   0.74895   0.05442
C          C       0.31567   0.01345   0.49753   0.05350
C          C       0.18231   0.49803   0.99746   0.05332
C          C       0.48691   0.82533  -0.00050   0.05152
C          C       0.00838   0.67764   0.50125   0.05354
C          C       0.68252   0.48779   0.75081   0.05276
C          C       0.81592   0.99703   0.25234   0.05488
C          C       0.00022   0.17452   0.74854   0.05267
C          C       0.48908   0.32262   0.24816   0.05414
C          C       0.82479   0.49856  -0.00174   0.05465
C          C       0.66597   0.98867   0.50265   0.05594
C          C       0.99567   0.32007   0.50004   0.05212
C          C       0.50822   0.18405   0.00128   0.05366
C          C       0.17275  -0.00174   0.25017   0.05284
C          C       0.33059   0.51712   0.74779   0.05545
C          C       0.58461   0.68191   0.17426  -0.11774
C          C       0.92522   0.81262   0.67657  -0.11718
C          C       0.31399   0.07518   0.42108  -0.11642
C          C       0.18573   0.43442   0.92363  -0.11568
C          C       0.42117   0.82381   0.07180  -0.11479
C          C       0.07254   0.68232   0.57435  -0.11550
C          C       0.68393   0.42718   0.82856  -0.11604
C          C       0.81220   0.05983   0.32708  -0.11551
C          C       0.06330   0.17982   0.67311  -0.11456
C          C       0.42545   0.32051   0.17421  -0.11629
C          C       0.82219   0.56235   0.92436  -0.11574
C          C       0.66343   0.92422   0.42984  -0.11719
C          C       0.93263   0.31485   0.57549  -0.11463
C          C       0.57272   0.18545   0.07408  -0.11606
C          C       0.17673   0.93459   0.32409  -0.11331
C          C       0.33297   0.58203   0.82016  -0.11953
C          C       0.57775   0.63078   0.08805  -0.15074
C          C       0.92842   0.86440   0.59048  -0.15082
C          C       0.36610   0.06966   0.33533  -0.15589
C          C       0.13430   0.43636   0.83764  -0.15329
C          C       0.42570   0.87534   0.15781  -0.15304
C          C       0.06931   0.62999   0.65999  -0.15254
C          C       0.63193   0.43422   0.91421  -0.15676
C          C       0.86346   0.05703   0.41299  -0.15457
C          C       0.05929   0.12783   0.58762  -0.15595
C          C       0.43145   0.37287   0.08848  -0.15365
C          C       0.87402   0.56003   0.83822  -0.15512
C          C       0.61573   0.93195   0.34182  -0.15011
C          C       0.93729   0.36630   0.66138  -0.15501
C          C       0.56710   0.13308   0.15974  -0.15120
C          C       0.12490   0.93572   0.41038  -0.15769
C          C       0.38175   0.57537   0.90775  -0.15024
C          C       0.50575   0.57905   0.07288   0.07338
C          C       0.99724   0.92018   0.57384   0.06991
C          C       0.41916   0.00150   0.32252   0.07163
C          C       0.07952   0.50272   0.82247   0.06872
C          C       0.49616   0.92879   0.17416   0.07399
C          C       0.00103   0.57336   0.67541   0.07123
C          C       0.57937   0.50291   0.92552   0.07148
C          C       0.91806   0.99043   0.42725   0.06977
C          C       0.99114   0.07082   0.57429   0.07005
C          C       0.50163   0.42743   0.07399   0.07004
C          C       0.92812   0.49308   0.82309   0.07099
C          C       0.56985   0.00435   0.32381   0.07016
C          C       0.00603   0.42254   0.67516   0.06895
C          C       0.49630   0.07965   0.17543   0.06991
C          C       0.06926   0.00138   0.42565   0.07108
C          C       0.42838   0.50340   0.92586   0.06992
C          C       0.43693   0.58749   0.14008  -0.13324
C          C       0.06655   0.91661   0.64028  -0.13279
C          C       0.41229   0.93457   0.39324  -0.12910
C          C       0.08433   0.57125   0.89035  -0.13313
C          C       0.56574   0.92238   0.10758  -0.13142
C          C       0.93210   0.57671   0.60833  -0.13346
C          C       0.58682   0.56893   0.85364  -0.12785
C          C       0.91331   0.92237   0.35861  -0.13260
C          C       0.92314   0.07354   0.64379  -0.13178
C          C       0.56956   0.42114   0.14205  -0.13346
C          C       0.92223   0.42427   0.89099  -0.13154
C          C       0.58010   0.07255   0.39154  -0.13651
C          C       0.07396   0.41959   0.60557  -0.13146
C          C       0.42777   0.08626   0.10834  -0.13412
C          C       0.07319   0.06992   0.35723  -0.13054
C          C       0.41780   0.43475   0.85900  -0.13502
C          C       0.44356   0.63696   0.22619  -0.09073
C          C       0.06321   0.86666   0.72664  -0.09421
C          C       0.36240   0.94073   0.47936  -0.09642
C          C       0.13394   0.56915   0.97649  -0.09294
C          C       0.56158   0.87215   0.02191  -0.09048
C          C       0.93549   0.62715   0.52245  -0.09382
C          C       0.63634   0.56113   0.76751  -0.09694
C          C       0.86396   0.92545   0.27231  -0.09462
C          C       0.92747   0.12349   0.72977  -0.09187
C          C       0.56390   0.37030   0.22745  -0.09372
C          C       0.87223   0.42676   0.97741  -0.09240
C          C       0.62698   0.06513   0.47954  -0.09216
C          C       0.06898   0.37021   0.51912  -0.09026
C          C       0.43333   0.13671   0.02260  -0.09371
C          C       0.12315   0.06865   0.27072  -0.09342
C          C       0.37041   0.44123   0.77136  -0.09142
C          C       0.00391   0.49779   0.74903   0.00954
C          C       0.49549   0.00379   0.24873   0.00770
C          C       0.50353   0.50312  -0.00013   0.00747
C          C       0.99383   0.99563   0.50028   0.00831
N          N       0.47865   0.70919   0.41986  -0.28396
N          N       0.02934   0.79541   0.92221  -0.28378
N          N       0.29443   0.97824   0.67274  -0.28948
N          N       0.20401   0.53630   0.17182  -0.28704
N          N       0.53203   0.79644   0.82898  -0.28394
N          N       0.97074   0.69699   0.32730  -0.28498
N          N       0.70448   0.52148   0.57558  -0.29107
N          N       0.79535   0.96286   0.07668  -0.28914
N          N       0.96490   0.19605   0.92364  -0.28832
N          N       0.52597   0.30331   0.42228  -0.28290
N          N       0.80400   0.46123   0.17294  -0.28531
N          N       0.69331   0.02621   0.67598  -0.28570
N          N       0.02980   0.29968   0.32445  -0.28905
N          N       0.46965   0.20554   0.82816  -0.28271
N          N       0.19415   0.03702   0.07585  -0.28421
N          N       0.30559   0.47860   0.57419  -0.28089

