data_crystal

_audit_creation_method 'AiiDA-DDEC plugin'

_cell_length_a        39.20156
_cell_length_b        39.49372
_cell_length_c         8.04901

_cell_angle_alpha     92.92074
_cell_angle_beta     90.12792
_cell_angle_gamma     120.19241

_symmetry_space_group_name_Hall 'P 1'
_symmetry_space_group_name_H-M  'P 1'

loop_
_symmetry_equiv_pos_as_xyz
 'x,y,z'

loop_
_atom_site_label
_atom_site_type_symbol
_atom_site_fract_x
_atom_site_fract_y
_atom_site_fract_z
_atom_site_charge
H          H       0.39396   0.62458   0.29724   0.11389
H          H       0.37859   0.76425   0.30277   0.11355
H          H       0.23561   0.60822   0.32339   0.11348
H          H       0.46170   0.63537   0.26576   0.10723
H          H       0.36666   0.81919   0.25985   0.10873
H          H       0.17753   0.54075   0.30359   0.10731
H          H       0.50590   0.74339   0.08090   0.12464
H          H       0.25983   0.76424   0.06449   0.12434
H          H       0.24073   0.50152   0.09732   0.12218
H          H       0.43763   0.73276   0.10900   0.11618
H          H       0.27108   0.70792   0.09991   0.11306
H          H       0.29861   0.57007   0.11212   0.11382
H          H       0.57562   0.69345   0.34946   0.07022
H          H       0.30532   0.87314   0.32217   0.06792
H          H       0.12269   0.42901   0.39053   0.06761
H          H       0.47387   0.61954   0.01532   0.10814
H          H       0.38542   0.85916   0.00664   0.10792
H          H       0.14199   0.52769   0.04537   0.11033
H          H       0.45636   0.54650   0.50952   0.10672
H          H       0.45923   0.91263   0.47802   0.10462
H          H       0.08939   0.54804   0.51603   0.10719
H          H       0.56319   0.57342   0.25910   0.11171
H          H       0.42158   0.98349   0.23557   0.11542
H          H       0.01765   0.44000   0.22535   0.11449
H          H       0.58232   0.64350   0.27032   0.10803
H          H       0.35208   0.93010   0.24913   0.10674
H          H       0.06946   0.42242   0.26027   0.10594
H          H       0.42674   0.42784   0.15480   0.11191
H          H       0.57140   0.99760   0.14949   0.11003
H          H       0.00270   0.57273   0.16488   0.11218
H          H       0.44167   0.49471   0.22890   0.11336
H          H       0.50598   0.94529   0.21732   0.11229
H          H       0.05576   0.56043   0.23753   0.11288
H          H       0.40614   0.36640   0.19134   0.10417
H          H       0.63187   0.03939   0.19104   0.10521
H          H       0.96259   0.59206   0.20119   0.10356
H          H       0.39502   0.30365   0.06268   0.10197
H          H       0.69522   0.08971   0.08849   0.10149
H          H       0.91301   0.60336   0.06847   0.10196
H          H       0.52013   0.34747   0.08606   0.11069
H          H       0.65322   0.17150   0.09863   0.11042
H          H       0.82871   0.47976   0.06360   0.10938
H          H       0.53110   0.40913   0.21682   0.11077
H          H       0.59066   0.12204   0.20323   0.11155
H          H       0.87743   0.46860   0.19853   0.11109
H          H       0.41431   0.26265   0.96368   0.07070
H          H       0.73721   0.14944   0.00346   0.06933
H          H       0.85472   0.58384   0.94380   0.07044
H          H       0.50070   0.23101   0.11663   0.12324
H          H       0.77148   0.26983   0.16546   0.12173
H          H       0.73557   0.50318   0.08551   0.12218
H          H       0.57320   0.25453   0.12088   0.11201
H          H       0.74869   0.31861   0.16156   0.11241
H          H       0.68642   0.43158   0.09912   0.11214
H          H       0.59022   0.35792   0.35126   0.11389
H          H       0.64064   0.23729   0.35218   0.11407
H          H       0.75950   0.40232   0.32514   0.11353
H          H       0.51782   0.33336   0.33870   0.10510
H          H       0.66348   0.18868   0.35322   0.10739
H          H       0.81041   0.47274   0.30738   0.10886
H          H       0.39159   0.62687   0.79630   0.11411
H          H       0.37527   0.76418   0.81249   0.11386
H          H       0.23252   0.60687   0.82050   0.11355
H          H       0.45967   0.63909   0.75615   0.10672
H          H       0.36231   0.81832   0.76442   0.10959
H          H       0.17645   0.53825   0.79323   0.10611
H          H       0.50867   0.74238   0.57298   0.12491
H          H       0.26340   0.76460   0.55567   0.12475
H          H       0.24049   0.50122   0.59994   0.12215
H          H       0.44068   0.73291   0.59396   0.11446
H          H       0.27390   0.70781   0.58781   0.11454
H          H       0.30009   0.56870   0.60898   0.11737
H          H       0.57395   0.69739   0.84648   0.07181
H          H       0.30157   0.87154   0.81412   0.07048
H          H       0.12460   0.42686   0.87118   0.07078
H          H       0.47543   0.61639   0.52118   0.10788
H          H       0.38986   0.85995   0.49674   0.11005
H          H       0.14120   0.53066   0.55166   0.10976
H          H       0.45596   0.54999   0.00967   0.10685
H          H       0.45459   0.91248  -0.00350   0.10460
H          H       0.08919   0.54397   0.02127   0.10473
H          H       0.56344   0.57772   0.76305   0.11441
H          H       0.41799   0.98135   0.73235   0.11725
H          H       0.01484   0.43343   0.75031   0.11772
H          H       0.58190   0.64766   0.77257   0.10616
H          H       0.34857   0.92760   0.73901   0.10618
H          H       0.06802   0.41722   0.77303   0.10652
H          H       0.42498   0.43026   0.67873   0.11304
H          H       0.56805   0.00034   0.66533   0.11206
H          H       0.00278   0.56893   0.68463   0.11287
H          H       0.44028   0.49728   0.74796   0.11604
H          H       0.50312   0.94646   0.72851   0.11329
H          H       0.05494   0.55574   0.75846   0.11241
H          H       0.40471   0.36993   0.70797   0.10328
H          H       0.62663   0.04153   0.70443   0.10287
H          H       0.96421   0.58861   0.70570   0.10257
H          H       0.39226   0.30715   0.57599   0.10180
H          H       0.68831   0.09146   0.58969   0.10202
H          H       0.91644   0.60109   0.56547   0.10233
H          H       0.51662   0.34757   0.60723   0.11006
H          H       0.64534   0.17262   0.60991   0.11152
H          H       0.82896   0.47875   0.57274   0.10841
H          H       0.52905   0.40932   0.74125   0.11159
H          H       0.58477   0.12360   0.73053   0.10999
H          H       0.87574   0.46646   0.71871   0.11236
H          H       0.41056   0.26623   0.46418   0.07035
H          H       0.72879   0.14916   0.50328   0.06954
H          H       0.85866   0.58284   0.43928   0.06938
H          H       0.49599   0.23086   0.58534   0.12255
H          H       0.76655   0.27112   0.64504   0.12279
H          H       0.73734   0.50682   0.57861   0.12177
H          H       0.56854   0.25482   0.59249   0.11329
H          H       0.74469   0.32077   0.63639   0.11310
H          H       0.68497   0.43603   0.58722   0.11211
H          H       0.59365   0.35206   0.83942   0.11436
H          H       0.64795   0.23704   0.85518   0.11389
H          H       0.76190   0.40298   0.81365   0.11445
H          H       0.52127   0.32719   0.82569   0.10428
H          H       0.67211   0.18959   0.85000   0.10115
H          H       0.80984   0.47417   0.79560   0.10526
C          C       0.37300   0.67241   0.45876   0.38009
C          C       0.33276   0.69858   0.46028   0.37668
C          C       0.30635   0.63244   0.46775   0.37848
C          C       0.41914   0.65003   0.35932  -0.09831
C          C       0.35389   0.76492   0.36095  -0.09885
C          C       0.23624   0.58474   0.38577  -0.09585
C          C       0.45703   0.65594   0.34305  -0.17989
C          C       0.34744   0.79598   0.33897  -0.17859
C          C       0.20359   0.54705   0.37660  -0.17924
C          C       0.48978   0.68908   0.42251   0.21119
C          C       0.31485   0.79650   0.41086   0.21160
C          C       0.20457   0.51644   0.45545   0.21305
C          C       0.48061   0.71793   0.01967  -0.16158
C          C       0.28494   0.76380   0.00971  -0.16005
C          C       0.23939   0.52488   0.03717  -0.15657
C          C       0.44275   0.71197   0.03542  -0.09899
C          C       0.29123   0.73264   0.02948  -0.09417
C          C       0.27142   0.56287   0.04533  -0.09706
C          C       0.41295   0.67777   0.44950  -0.00703
C          C       0.32726   0.73267   0.44916  -0.00759
C          C       0.27139   0.59281   0.46847  -0.00660
C          C       0.54440   0.67744   0.38168   0.07235
C          C       0.32342   0.86055   0.35862   0.07387
C          C       0.13770   0.46101   0.41467   0.07583
C          C       0.49457   0.60724   0.46179  -0.11047
C          C       0.39659   0.88644   0.43587  -0.11029
C          C       0.11452   0.51083   0.47851  -0.11119
C          C       0.48376   0.56776   0.45495  -0.13929
C          C       0.43572   0.91628   0.42597  -0.13808
C          C       0.08528   0.52065   0.45854  -0.14170
C          C       0.50806   0.55491   0.38092   0.08405
C          C       0.44542   0.95153   0.35294   0.08123
C          C       0.04997   0.49527   0.36822   0.08092
C          C       0.54424   0.58292   0.31811  -0.11594
C          C       0.41457   0.95651   0.29329  -0.11343
C          C       0.04449   0.45948   0.29848  -0.11286
C          C       0.55468   0.62218   0.32335  -0.11957
C          C       0.37564   0.92635   0.30023  -0.11884
C          C       0.07378   0.44993   0.31753  -0.11962
C          C       0.52985   0.63517   0.39152   0.04483
C          C       0.36574   0.89036   0.36760   0.04798
C          C       0.10958   0.47542   0.40554   0.04560
C          C       0.52128   0.49918   0.41480   0.11163
C          C       0.49975   0.02261   0.37825   0.11556
C          C       0.97912   0.47887   0.38185   0.11495
C          C       0.51213   0.45914   0.37468   0.10997
C          C       0.53906   0.05394   0.34143   0.11356
C          C       0.94754   0.48667   0.34456   0.11300
C          C       0.47744   0.43211   0.27639   0.00902
C          C       0.56636   0.04558   0.25528   0.00978
C          C       0.95547   0.52137   0.26336   0.00645
C          C       0.45278   0.44647   0.23399  -0.13078
C          C       0.55260   0.00581   0.21870  -0.13062
C          C       0.99510   0.54678   0.23208  -0.13035
C          C       0.46153   0.48535   0.27547  -0.13213
C          C       0.51446   0.97538   0.25645  -0.13377
C          C       0.02586   0.53944   0.27178  -0.13598
C          C       0.49608   0.51302   0.36019   0.01100
C          C       0.48663   0.98249   0.33133   0.01147
C          C       0.01901   0.50532   0.34188   0.01357
C          C       0.43131   0.36250   0.16790  -0.13869
C          C       0.63605   0.06818   0.16932  -0.14136
C          C       0.93340   0.56718   0.16947  -0.14083
C          C       0.42500   0.32699   0.09590  -0.12880
C          C       0.67204   0.09673   0.11169  -0.13126
C          C       0.90531   0.57363   0.09545  -0.13018
C          C       0.45656   0.32019   0.06473   0.05627
C          C       0.67959   0.13492   0.08407   0.05786
C          C       0.86683   0.54247   0.05326   0.05735
C          C       0.49484   0.35091   0.11054  -0.10723
C          C       0.64905   0.14280   0.11936  -0.10751
C          C       0.85771   0.50471   0.09479  -0.10752
C          C       0.50116   0.38617   0.18416  -0.10925
C          C       0.61326   0.11451   0.17834  -0.11173
C          C       0.88561   0.49823   0.16996  -0.11114
C          C       0.46974   0.39318   0.21318   0.08217
C          C       0.60542   0.07622   0.20325   0.07952
C          C       0.92451   0.52904   0.20522   0.08172
C          C       0.44607   0.28099   0.99275   0.07072
C          C       0.71913   0.16312   0.02670   0.06886
C          C       0.83989   0.55278   0.97176   0.07186
C          C       0.52120   0.25735   0.05573  -0.17013
C          C       0.74463   0.26297   0.09691  -0.16757
C          C       0.74092   0.48106   0.02559  -0.17311
C          C       0.56145   0.27048   0.05853  -0.09395
C          C       0.73188   0.29011   0.09457  -0.09585
C          C       0.71367   0.44126   0.03309  -0.09268
C          C       0.58799   0.30519   0.98382  -0.01476
C          C       0.69659   0.28078   0.00976  -0.01081
C          C       0.72148   0.41277   0.96120  -0.01388
C          C       0.56944   0.33037   0.40382  -0.09326
C          C       0.66796   0.24433   0.41725  -0.09449
C          C       0.75489   0.42530   0.38119  -0.09384
C          C       0.52921   0.31675   0.39720  -0.18045
C          C       0.68049   0.21720   0.41887  -0.18216
C          C       0.78333   0.46449   0.37188  -0.17995
C          C       0.50632   0.27856   0.97651   0.21731
C          C       0.72245   0.22568   0.01273   0.21603
C          C       0.77672   0.49335   0.94455   0.21941
C          C       0.63066   0.31979   0.98844   0.37971
C          C       0.68227   0.30878   0.00325   0.38104
C          C       0.69373   0.37073   0.97704   0.38095
C          C       0.37027   0.67305   0.96789   0.38408
C          C       0.32974   0.69881   0.97057   0.37812
C          C       0.30359   0.63267   0.97056   0.37799
C          C       0.41673   0.65200   0.86025  -0.10063
C          C       0.35046   0.76475   0.86992  -0.10036
C          C       0.23395   0.58375   0.88257  -0.09693
C          C       0.45477   0.65861   0.83968  -0.17670
C          C       0.34352   0.79537   0.84539  -0.17703
C          C       0.20237   0.54544   0.86952  -0.17966
C          C       0.48738   0.69129   0.92218   0.21035
C          C       0.31085   0.79572   0.91690   0.20793
C          C       0.20429   0.51531   0.94834   0.21279
C          C       0.48327   0.71671   0.51335  -0.15987
C          C       0.28851   0.76415   0.50086  -0.15943
C          C       0.23988   0.52496   0.53985  -0.15341
C          C       0.44555   0.71135   0.52525  -0.09534
C          C       0.29441   0.73267   0.51880  -0.09427
C          C       0.27289   0.56238   0.54477  -0.10067
C          C       0.41029   0.67873   0.95704  -0.00950
C          C       0.32411   0.73277   0.95984  -0.00752
C          C       0.26906   0.59278   0.96840  -0.00728
C          C       0.54275   0.68089   0.87890   0.07152
C          C       0.31934   0.85905   0.85632   0.07204
C          C       0.13859   0.45850   0.90316   0.07146
C          C       0.49356   0.61065   0.95959  -0.11106
C          C       0.39223   0.88539   0.94347  -0.10728
C          C       0.11463   0.50726   0.97768  -0.10990
C          C       0.48334   0.57134   0.95530  -0.13695
C          C       0.43133   0.91552   0.93780  -0.13802
C          C       0.08481   0.51643   0.96411  -0.13717
C          C       0.50812   0.55879   0.88354   0.08227
C          C       0.44124   0.95043   0.86165   0.08295
C          C       0.04854   0.49016   0.88160   0.08269
C          C       0.54422   0.58703   0.82086  -0.11497
C          C       0.41073   0.95466   0.79295  -0.11544
C          C       0.04261   0.45391   0.81534  -0.11493
C          C       0.55425   0.62619   0.82500  -0.11828
C          C       0.37185   0.92431   0.79626  -0.12126
C          C       0.07261   0.44509   0.82731  -0.12142
C          C       0.52891   0.63881   0.89055   0.04612
C          C       0.36167   0.88877   0.86830   0.04472
C          C       0.10947   0.47170   0.90506   0.04729
C          C       0.52238   0.50350   0.91603   0.11442
C          C       0.49444   0.02173   0.89749   0.11529
C          C       0.97731   0.47379   0.89467   0.11546
C          C       0.51279   0.46311   0.88057   0.11009
C          C       0.53351   0.05396   0.86445   0.11091
C          C       0.94608   0.48216   0.85663   0.10985
C          C       0.47705   0.43525   0.78988   0.00993
C          C       0.56144   0.04687   0.77690   0.00866
C          C       0.95466   0.51740   0.77800   0.00649
C          C       0.45202   0.44947   0.75128  -0.12985
C          C       0.54868   0.00747   0.73618  -0.12915
C          C       0.99453   0.54260   0.75005  -0.12876
C          C       0.46103   0.48855   0.78949  -0.13432
C          C       0.51088   0.97616   0.77105  -0.13208
C          C       0.02485   0.53473   0.79031  -0.13218
C          C       0.49653   0.51697   0.86556   0.01309
C          C       0.48238   0.98209   0.84612   0.01354
C          C       0.01749   0.50018   0.85788   0.01369
C          C       0.42958   0.36554   0.68428  -0.13749
C          C       0.63024   0.07006   0.68264  -0.13722
C          C       0.93470   0.56415   0.67549  -0.13921
C          C       0.42245   0.32989   0.61027  -0.12929
C          C       0.66528   0.09839   0.61829  -0.12911
C          C       0.90759   0.57136   0.59730  -0.12874
C          C       0.45341   0.32224   0.57774   0.05620
C          C       0.67218   0.13624   0.58937   0.05758
C          C       0.86873   0.54090   0.55585   0.05655
C          C       0.49174   0.35178   0.63016  -0.10937
C          C       0.64196   0.14424   0.63155  -0.10439
C          C       0.85829   0.50318   0.60327  -0.10738
C          C       0.49894   0.38724   0.70521  -0.10895
C          C       0.60716   0.11616   0.69868  -0.11320
C          C       0.88511   0.49599   0.68387  -0.11269
C          C       0.46832   0.39566   0.73037   0.08008
C          C       0.59992   0.07805   0.72316   0.08235
C          C       0.92449   0.52595   0.71715   0.08286
C          C       0.44233   0.28376   0.49491   0.06902
C          C       0.71134   0.16352   0.52611   0.06896
C          C       0.84278   0.55205   0.47141   0.07193
C          C       0.51681   0.25854   0.53386  -0.16856
C          C       0.73919   0.26413   0.58047  -0.16767
C          C       0.74171   0.48375   0.52211  -0.17182
C          C       0.55711   0.27196   0.53828  -0.09162
C          C       0.72698   0.29160   0.57580  -0.09489
C          C       0.71277   0.44441   0.52766  -0.09229
C          C       0.58398   0.30826   0.47541  -0.01426
C          C       0.69100   0.28182   0.49617  -0.01248
C          C       0.71935   0.41471   0.46056  -0.01603
C          C       0.57318   0.32579   0.90105  -0.09602
C          C       0.67485   0.24396   0.92366  -0.09740
C          C       0.75637   0.42493   0.87452  -0.09671
C          C       0.53294   0.31216   0.89464  -0.17741
C          C       0.68808   0.21733   0.92234  -0.17961
C          C       0.78311   0.46462   0.86408  -0.18086
C          C       0.50228   0.28131   0.46676   0.21966
C          C       0.71566   0.22614   0.50431   0.22134
C          C       0.77799   0.49437   0.44760   0.22385
C          C       0.62664   0.32266   0.47998   0.37832
C          C       0.67732   0.31021   0.49017   0.37894
C          C       0.69023   0.37292   0.47364   0.38226
S          S       0.57273   0.49201   0.53713   0.43553
S          S       0.50589   0.08273   0.48947   0.43635
S          S       0.91959   0.42609   0.48010   0.43908
S          S       0.57476   0.49706   0.03369   0.43572
S          S       0.49859   0.08061   0.01404   0.43922
S          S       0.91692   0.42066   0.98612   0.44041
N          N       0.52913   0.69960   0.40053  -0.28473
N          N       0.30288   0.82356   0.38196  -0.28719
N          N       0.17525   0.47685   0.44137  -0.29107
N          N       0.46556   0.26303   0.96545  -0.27307
N          N       0.73763   0.20036   0.00653  -0.27400
N          N       0.80268   0.53350   0.93264  -0.27307
N          N       0.55515   0.52090   0.50725  -0.35182
N          N       0.47800   0.03529   0.46238  -0.35343
N          N       0.96692   0.44517   0.45940  -0.35169
N          N       0.53951   0.45164   0.43857  -0.34420
N          N       0.54581   0.08970   0.39924  -0.34677
N          N       0.91205   0.45842   0.39569  -0.34773
N          N       0.30000   0.66297   0.46650  -0.41544
N          N       0.34221   0.63545   0.46318  -0.42234
N          N       0.36996   0.70497   0.45847  -0.41995
N          N       0.65492   0.35863   0.97450  -0.41953
N          N       0.64280   0.29361   0.00353  -0.42217
N          N       0.70915   0.34710   0.99209  -0.42658
N          N       0.52679   0.70243   0.89738  -0.28021
N          N       0.29856   0.82227   0.88277  -0.28642
N          N       0.17631   0.47541   0.92778  -0.28647
N          N       0.46153   0.26598   0.45650  -0.27516
N          N       0.73030   0.20047   0.50072  -0.27527
N          N       0.80544   0.53404   0.43475  -0.27581
N          N       0.55702   0.52575   0.00259  -0.34726
N          N       0.47176   0.03317   0.98227  -0.34919
N          N       0.96438   0.43959   0.96904  -0.35200
N          N       0.54067   0.45606   0.94232  -0.34852
N          N       0.53923   0.08914   0.92558  -0.35015
N          N       0.91023   0.45374   0.90371  -0.34902
N          N       0.29698   0.66302   0.97104  -0.41749
N          N       0.33959   0.63597   0.96717  -0.42368
N          N       0.36704   0.70553   0.97250  -0.42221
N          N       0.65157   0.36167   0.47292  -0.42328
N          N       0.63798   0.29574   0.48852  -0.42039
N          N       0.70474   0.34843   0.48364  -0.42454

