data_crystal

_audit_creation_method 'AiiDA-DDEC plugin'

_cell_length_a        32.14003
_cell_length_b        31.81305
_cell_length_c         8.15503

_cell_angle_alpha     90.01901
_cell_angle_beta     89.24199
_cell_angle_gamma     120.28150

_symmetry_space_group_name_Hall 'P 1'
_symmetry_space_group_name_H-M  'P 1'

loop_
_symmetry_equiv_pos_as_xyz
 'x,y,z'

loop_
_atom_site_label
_atom_site_type_symbol
_atom_site_fract_x
_atom_site_fract_y
_atom_site_fract_z
_atom_site_charge
H          H       0.41688   0.72296   0.35275   0.11727
H          H       0.27422   0.69125   0.35182   0.11464
H          H       0.30459   0.57867   0.35432   0.11532
H          H       0.27428   0.57761   0.14074   0.11708
H          H       0.30525   0.72227   0.14625   0.11468
H          H       0.41793   0.69376   0.13142   0.11710
H          H       0.58195   0.27628   0.14700   0.11929
H          H       0.72424   0.30752   0.14847   0.11474
H          H       0.69496   0.42100   0.15067   0.11516
H          H       0.72654   0.42236   0.36005   0.11587
H          H       0.69365   0.27720   0.35160   0.11505
H          H       0.58221   0.30823   0.36193   0.11605
H          H       0.46151   0.81295   0.34993   0.14230
H          H       0.18520   0.64619   0.35188   0.13839
H          H       0.35015   0.53507   0.34782   0.13953
H          H       0.18518   0.53281   0.14935   0.13853
H          H       0.35089   0.81220   0.15331   0.13848
H          H       0.46328   0.64997   0.12949   0.13908
H          H       0.53822   0.18639   0.14923   0.14277
H          H       0.81325   0.35253   0.15332   0.13878
H          H       0.65044   0.46569   0.15538   0.14160
H          H       0.81551   0.46633   0.35730   0.13874
H          H       0.64769   0.18716   0.34557   0.13690
H          H       0.53898   0.35409   0.36100   0.13789
H          H       0.38856   0.95469   0.27810   0.12901
H          H       0.04303   0.42903   0.30277   0.13279
H          H       0.56622   0.61407   0.27946   0.12962
H          H       0.04783   0.61256   0.21622   0.13014
H          H       0.56854   0.95269   0.19449   0.13062
H          H       0.38968   0.43521   0.21987   0.13001
H          H       0.61489   0.04475   0.19602   0.13032
H          H       0.95673   0.56884   0.21530   0.12988
H          H       0.43578   0.39018   0.22564   0.12935
H          H       0.95201   0.38507   0.29996   0.12998
H          H       0.43438   0.04669   0.28016   0.12919
H          H       0.61344   0.57029   0.28604   0.13181
H          H       0.41640   0.72379   0.84254   0.11895
H          H       0.27407   0.69153   0.85714   0.11626
H          H       0.30565   0.57846   0.85270   0.11569
H          H       0.27256   0.57819   0.64572   0.11622
H          H       0.30347   0.72278   0.63967   0.12037
H          H       0.41627   0.69223   0.63968   0.11411
H          H       0.58244   0.27656   0.65238   0.11635
H          H       0.72374   0.30684   0.64272   0.12011
H          H       0.69466   0.42103   0.64753   0.11535
H          H       0.72734   0.42248   0.86132   0.12115
H          H       0.69580   0.27803   0.85835   0.11554
H          H       0.58328   0.30870   0.86138   0.11513
H          H       0.46076   0.81362   0.84283   0.13808
H          H       0.18504   0.64531   0.85783   0.13665
H          H       0.35204   0.53585   0.84462   0.13776
H          H       0.18348   0.53420   0.65193   0.13679
H          H       0.34908   0.81267   0.64243   0.14300
H          H       0.46049   0.64733   0.64069   0.13767
H          H       0.53789   0.18659   0.65404   0.14261
H          H       0.81287   0.35239   0.64861   0.13795
H          H       0.65052   0.46605   0.65137   0.13878
H          H       0.81635   0.46624   0.85936   0.13881
H          H       0.65102   0.18806   0.85483   0.13914
H          H       0.53980   0.35440   0.86093   0.13912
H          H       0.38693   0.95536   0.80364   0.13022
H          H       0.04314   0.42881   0.79316   0.12988
H          H       0.56917   0.61489   0.77606   0.12967
H          H       0.04639   0.61332   0.71845   0.12975
H          H       0.56494   0.95306   0.70775   0.12994
H          H       0.38644   0.43095   0.71135   0.12994
H          H       0.61058   0.04508   0.71091   0.12919
H          H       0.95535   0.56891   0.71892   0.13011
H          H       0.43377   0.38721   0.71845   0.13043
H          H       0.95216   0.38549   0.78931   0.13238
H          H       0.43317   0.04742   0.80581   0.13103
H          H       0.61569   0.57034   0.78488   0.13067
C          C       0.40189   0.74239   0.41624  -0.16560
C          C       0.25456   0.65688   0.41727  -0.16502
C          C       0.33875   0.59393   0.41658  -0.16618
C          C       0.25497   0.59271   0.07917  -0.16854
C          C       0.33939   0.74206   0.08051  -0.16572
C          C       0.40328   0.65913   0.06918  -0.16652
C          C       0.59727   0.25722   0.08293  -0.16743
C          C       0.74420   0.34234   0.08581  -0.16551
C          C       0.66102   0.40623   0.08727  -0.16637
C          C       0.74516   0.40672   0.42282  -0.16551
C          C       0.65947   0.25755   0.41709  -0.16508
C          C       0.59738   0.34273   0.42530  -0.16586
C          C       0.42738   0.79301   0.41617  -0.13531
C          C       0.20446   0.63200   0.41929  -0.13350
C          C       0.36392   0.56893   0.41478  -0.13304
C          C       0.20480   0.56698   0.08199  -0.13068
C          C       0.36462   0.79273   0.08250  -0.13316
C          C       0.42925   0.63497   0.06603  -0.13258
C          C       0.57228   0.20660   0.08279  -0.13663
C          C       0.79427   0.36715   0.08647  -0.13318
C          C       0.63640   0.43179   0.08835  -0.13476
C          C       0.79529   0.43202   0.42340  -0.13285
C          C       0.63411   0.20690   0.41579  -0.13325
C          C       0.57255   0.36806   0.42680  -0.13379
C          C       0.41376   0.89512   0.41439   0.42852
C          C       0.10259   0.51585   0.42853   0.43009
C          C       0.48002   0.58541   0.41319   0.42968
C          C       0.10471   0.58310   0.08474   0.42789
C          C       0.48135   0.89436   0.07360   0.42702
C          C       0.41587   0.51984   0.07344   0.42972
C          C       0.58754   0.10474   0.07689   0.42881
C          C       0.89676   0.48293   0.08370   0.42960
C          C       0.52120   0.41716   0.08827   0.43102
C          C       0.89470   0.41519   0.42392   0.42760
C          C       0.51853   0.10536   0.41896   0.42971
C          C       0.58752   0.48469   0.42635   0.42847
C          C       0.44147   0.94892   0.41647  -0.07261
C          C       0.04933   0.49035   0.43226  -0.07486
C          C       0.50683   0.55892   0.41794  -0.07024
C          C       0.05147   0.55674   0.08257  -0.07209
C          C       0.50814   0.94823   0.07134  -0.07211
C          C       0.44338   0.49411   0.07499  -0.07414
C          C       0.55998   0.05088   0.07254  -0.07246
C          C       0.95003   0.50797   0.08160  -0.07273
C          C       0.49484   0.44409   0.08256  -0.07301
C          C       0.94789   0.44123   0.42986  -0.07138
C          C       0.49258   0.05150   0.41861  -0.07068
C          C       0.55941   0.50991   0.42503  -0.07378
C          C       0.42300   0.97496   0.33914  -0.07583
C          C       0.02324   0.44482   0.35927  -0.07837
C          C       0.55202   0.57915   0.34189  -0.07616
C          C       0.02684   0.57737   0.15753  -0.07677
C          C       0.55367   0.97353   0.14087  -0.07630
C          C       0.42444   0.44969   0.15760  -0.07696
C          C       0.57944   0.02460   0.14149  -0.07549
C          C       0.97634   0.55311   0.15701  -0.07637
C          C       0.45004   0.42476   0.16103  -0.07564
C          C       0.97276   0.42043   0.35777  -0.07627
C          C       0.44844   0.02600   0.34019  -0.07801
C          C       0.57819   0.55479   0.34542  -0.07779
C          C       0.35760   0.71624   0.99534   0.16701
C          C       0.28088   0.63799  -0.00152   0.17059
C          C       0.35832   0.63928   0.99293   0.16916
C          C       0.64218   0.28389   0.00245   0.16840
C          C       0.71913   0.36158   0.00471   0.16870
C          C       0.64245   0.36153   0.00564   0.16739
C          C       0.40870   0.81835  -0.00128   0.16771
C          C       0.17976   0.58629   0.00350   0.16581
C          C       0.41045   0.59033   0.98657   0.16666
C          C       0.59202   0.18177   0.00258   0.16697
C          C       0.82011   0.41194   0.00576   0.16883
C          C       0.59251   0.41270   0.00820   0.16695
C          C       0.48773   0.97407   0.00006   0.02364
C          C       0.02563   0.51100   0.00536   0.02451
C          C       0.48884   0.51458   0.99525   0.02493
C          C       0.51398   0.02600   0.00054   0.02448
C          C       0.97423   0.48635   0.00462   0.02421
C          C       0.51503   0.48937  -0.00031   0.02502
C          C       0.40181   0.74285   0.91055  -0.16616
C          C       0.25486   0.65672   0.92042  -0.16649
C          C       0.34011   0.59433   0.91330  -0.16537
C          C       0.25369   0.59332   0.58158  -0.16545
C          C       0.33811   0.74223   0.57670  -0.16853
C          C       0.40150   0.65776   0.57636  -0.16598
C          C       0.59699   0.25726   0.58549  -0.16591
C          C       0.74366   0.34189   0.58136  -0.16963
C          C       0.66065   0.40625   0.58456  -0.16586
C          C       0.74586   0.40688   0.92500  -0.16787
C          C       0.66126   0.25816   0.92157  -0.16583
C          C       0.59817   0.34301   0.92577  -0.16499
C          C       0.42728   0.79345   0.91247  -0.13478
C          C       0.20477   0.63116   0.92264  -0.13204
C          C       0.36586   0.56992   0.91040  -0.13281
C          C       0.20353   0.56815   0.58356  -0.13277
C          C       0.36337   0.79289   0.57641  -0.13633
C          C       0.42690   0.63303   0.57483  -0.13342
C          C       0.57145   0.20662   0.58468  -0.13622
C          C       0.79375   0.36699   0.58259  -0.13225
C          C       0.63615   0.43194   0.58544  -0.13304
C          C       0.79599   0.43199   0.92565  -0.13434
C          C       0.63654   0.20752   0.92165  -0.13300
C          C       0.57326   0.36824   0.92726  -0.13427
C          C       0.41422   0.89547   0.92330   0.42909
C          C       0.10315   0.51424   0.92891   0.42851
C          C       0.48241   0.58660   0.90570   0.42751
C          C       0.10388   0.58471   0.58392   0.42962
C          C       0.47978   0.89442   0.57359   0.42837
C          C       0.41276   0.51695   0.57349   0.42887
C          C       0.58453   0.10465   0.57838   0.43025
C          C       0.89573   0.48305   0.58507   0.42916
C          C       0.52068   0.41676   0.58964   0.42978
C          C       0.89496   0.41459   0.92396   0.42958
C          C       0.52020   0.10558   0.92712   0.42910
C          C       0.58857   0.48458   0.92466   0.42946
C          C       0.44179   0.94928   0.92775  -0.07055
C          C       0.04987   0.48937   0.92883  -0.07282
C          C       0.50909   0.55997   0.91304  -0.06999
C          C       0.05058   0.55789   0.58372  -0.07204
C          C       0.50614   0.94827   0.57273  -0.07204
C          C       0.44088   0.49175   0.57509  -0.07373
C          C       0.55724   0.05084   0.57499  -0.07190
C          C       0.94903   0.50844   0.58343  -0.07290
C          C       0.49356   0.44293   0.58276  -0.07180
C          C       0.94829   0.44077   0.92629  -0.07139
C          C       0.49352   0.05178   0.92931  -0.07291
C          C       0.56088   0.51020   0.92237  -0.07377
C          C       0.42233   0.97552   0.85848  -0.07634
C          C       0.02353   0.44448   0.85188  -0.07611
C          C       0.55446   0.57989   0.83824  -0.07647
C          C       0.02567   0.57815   0.65943  -0.07581
C          C       0.55061   0.97374   0.64922  -0.07695
C          C       0.42189   0.44665   0.65328  -0.07637
C          C       0.57601   0.02480   0.65058  -0.07599
C          C       0.97513   0.55352   0.65947  -0.07680
C          C       0.44813   0.42236   0.65740  -0.07665
C          C       0.97300   0.42036   0.85012  -0.07909
C          C       0.44803   0.02657   0.85949  -0.07603
C          C       0.58029   0.55518   0.84307  -0.07729
C          C       0.35695   0.71611   0.49696   0.16823
C          C       0.28005   0.63818   0.49884   0.16782
C          C       0.35707   0.63874   0.49715   0.16941
C          C       0.64134   0.28361   0.50141   0.16869
C          C       0.71850   0.36128   0.50182   0.16881
C          C       0.64184   0.36135   0.50403   0.16833
C          C       0.40804   0.81821   0.49620   0.16532
C          C       0.17900   0.58765   0.50284   0.16783
C          C       0.40805   0.58861   0.49382   0.16782
C          C       0.59004   0.18153   0.49961   0.16765
C          C       0.81950   0.41205   0.50336   0.16717
C          C       0.59205   0.41274   0.50660   0.16751
C          C       0.48642   0.97391   0.49524   0.02437
C          C       0.02490   0.51196   0.50765   0.02503
C          C       0.48688   0.51331   0.49862   0.02399
C          C       0.51232   0.02586   0.49611   0.02437
C          C       0.97350   0.48704   0.50684   0.02434
C          C       0.51352   0.48853   0.50226   0.02502
N          N       0.43538   0.87102   0.00014  -0.20057
N          N       0.12763   0.56027   0.00615  -0.19971
N          N       0.43690   0.56462   0.98644  -0.20039
N          N       0.56589   0.12911   0.00240  -0.20172
N          N       0.87223   0.43738   0.00420  -0.20244
N          N       0.56676   0.43911   0.00778  -0.20140
N          N       0.33215   0.66440   0.99564  -0.11583
N          N       0.66788   0.33568   0.00336  -0.11449
N          N       0.43449   0.87086   0.49554  -0.20067
N          N       0.12687   0.56183   0.50583  -0.20288
N          N       0.43441   0.56282   0.49331  -0.20092
N          N       0.56354   0.12887   0.49848  -0.20254
N          N       0.87159   0.43772   0.50346  -0.19998
N          N       0.56601   0.43892   0.50753  -0.20166
N          N       0.33133   0.66431   0.49777  -0.11444
N          N       0.66724   0.33544   0.50157  -0.11520
O          O       0.37484   0.87240   0.34493  -0.42564
O          O       0.12501   0.49864   0.36042  -0.42687
O          O       0.49600   0.62494   0.34295  -0.42706
O          O       0.12825   0.62277   0.15210  -0.42588
O          O       0.49773   0.87069   0.13643  -0.42578
O          O       0.37671   0.50365   0.14460  -0.42645
O          O       0.62696   0.12738   0.14338  -0.42624
O          O       0.87459   0.50030   0.15246  -0.42662
O          O       0.50478   0.37777   0.15986  -0.42820
O          O       0.87144   0.37612   0.35266  -0.42628
O          O       0.50233   0.12880   0.35305  -0.42700
O          O       0.62742   0.50207   0.35955  -0.42585
O          O       0.37503   0.87278   0.85551  -0.42821
O          O       0.12538   0.49640   0.86373  -0.42489
O          O       0.49850   0.62570   0.83246  -0.42642
O          O       0.12736   0.62477   0.64881  -0.42593
O          O       0.49589   0.87090   0.63952  -0.42427
O          O       0.37275   0.49952   0.63958  -0.42627
O          O       0.62340   0.12762   0.64783  -0.42727
O          O       0.87316   0.49989   0.65456  -0.42539
O          O       0.50499   0.37781   0.66350  -0.42754
O          O       0.87111   0.37517   0.85539  -0.42692
O          O       0.50398   0.12918   0.86280  -0.42645
O          O       0.62825   0.50128   0.85666  -0.42540

