data_crystal

_audit_creation_method 'AiiDA-DDEC plugin'

_cell_length_a        38.62564
_cell_length_b        38.78424
_cell_length_c         8.33149

_cell_angle_alpha     122.87679
_cell_angle_beta     81.82191
_cell_angle_gamma     119.80045

_symmetry_space_group_name_Hall 'P 1'
_symmetry_space_group_name_H-M  'P 1'

loop_
_symmetry_equiv_pos_as_xyz
 'x,y,z'

loop_
_atom_site_label
_atom_site_type_symbol
_atom_site_fract_x
_atom_site_fract_y
_atom_site_fract_z
_atom_site_charge
H          H       0.65001   0.41002   0.94878   0.11200
H          H       0.58362   0.22364   0.94102   0.11182
H          H       0.77189   0.35334   0.03400   0.11006
H          H       0.35086   0.58731   0.05026   0.11334
H          H       0.40828   0.77021   0.05043   0.11248
H          H       0.22675   0.64943   0.03042   0.10947
H          H       0.59699   0.42903   0.94626   0.11665
H          H       0.56419   0.15200   0.94417   0.12250
H          H       0.84460   0.40618   0.04276   0.12272
H          H       0.40773   0.57367   0.05059   0.11859
H          H       0.42601   0.84070   0.04262   0.12147
H          H       0.15355   0.59647   0.01393   0.11475
H          H       0.50932   0.31300   0.00065   0.10771
H          H       0.69069   0.20181   0.06684   0.11065
H          H       0.80999   0.48895   0.98267   0.11007
H          H       0.48853   0.69337   0.00645   0.10828
H          H       0.29889   0.78951   0.93032   0.11033
H          H       0.18280   0.50295   0.01180   0.12898
H          H       0.56241   0.29436   0.00050   0.11168
H          H       0.70923   0.27184   0.05656   0.11412
H          H       0.73803   0.43636   0.97623   0.11310
H          H       0.43158   0.70642   0.00756   0.10936
H          H       0.28198   0.72032   0.94382   0.11056
H          H       0.25654   0.55672   0.03005   0.11521
H          H       0.49440   0.36797   0.03031   0.24237
H          H       0.63973   0.13758   0.08295   0.23537
H          H       0.87612   0.50816   0.00203   0.24027
H          H       0.50853   0.64206   0.97334   0.24369
H          H       0.34956   0.85390   0.90762   0.23680
H          H       0.10603   0.52779   0.07653   0.22529
H          H       0.95622   0.44530   0.98415   0.11909
H          H       0.01859   0.44312   0.87061   0.11892
H          H       0.50898   0.06233   0.46582   0.11359
H          H       0.43213   0.99313   0.93387   0.10012
H          H       0.60660   0.07182   0.57541   0.07296
H          H       0.46994   0.40972   0.04055   0.07508
H          H       0.44338   0.45636   0.07846   0.10651
H          H       0.44820   0.52309   0.08342   0.11736
H          H       0.55400   0.47807   0.41893   0.11810
H          H       0.55929   0.54518   0.42482   0.10653
H          H       0.53223   0.59132   0.45744   0.07516
H          H       0.07093   0.57061   0.56400   0.10560
H          H       0.01024   0.57383   0.52243   0.09953
H          H       0.39032   0.92151   0.92197   0.07205
H          H       0.49006   0.93437   0.03307   0.11201
H          H       0.56275  -0.00071   0.56027   0.10162
H          H       0.93616   0.53888   0.47148   0.07403
H          H       0.64530   0.40549   0.45483   0.11106
H          H       0.58698   0.22198   0.44651   0.11383
H          H       0.77455   0.36001   0.53559   0.11094
H          H       0.35269   0.59220   0.55575   0.11178
H          H       0.41625   0.77661   0.55099   0.11223
H          H       0.22799   0.64394   0.47876   0.10551
H          H       0.59054   0.42186   0.44972   0.11729
H          H       0.57029   0.15142   0.45188   0.11932
H          H       0.84504   0.41647   0.53623   0.11757
H          H       0.40528   0.57253   0.55694   0.11734
H          H       0.43283   0.84733   0.54620   0.11962
H          H       0.15722   0.59105   0.49406   0.11159
H          H       0.50525   0.30291   0.49042   0.10678
H          H       0.69776   0.20456   0.56659   0.11030
H          H       0.79971   0.49149   0.47987   0.10987
H          H       0.49338   0.68832   0.50213   0.10685
H          H       0.30538   0.79511   0.43915   0.10926
H          H       0.19896   0.51240   0.54246   0.11986
H          H       0.56021   0.28697   0.49360   0.11149
H          H       0.71363   0.27412   0.55767   0.11438
H          H       0.72985   0.43498   0.47971   0.11277
H          H       0.44067   0.70775   0.50406   0.11134
H          H       0.28958   0.72586   0.45099   0.10983
H          H       0.26921   0.56532   0.52688   0.11195
H          H       0.48806   0.35620   0.51976   0.23612
H          H       0.64788   0.13903   0.58269   0.23847
H          H       0.86781   0.50939   0.45762   0.24091
H          H       0.50746   0.63234   0.46568   0.23779
H          H       0.35527   0.85880   0.41115   0.23617
H          H       0.13488   0.50663   0.62382   0.21513
H          H       0.93321   0.44474   0.50922   0.11016
H          H       0.99372   0.44070   0.54356   0.10731
H          H       0.49933   0.05808   0.96243   0.11282
H          H       0.44050   0.99815   0.43239   0.09970
H          H       0.59905   0.07122   0.07490   0.07635
H          H       0.46265   0.39803   0.53651   0.07349
H          H       0.43589   0.44563   0.57759   0.10443
H          H       0.44154   0.51330   0.58663   0.11755
H          H       0.56122   0.48897   0.91684   0.11824
H          H       0.56636   0.55631   0.92517   0.10413
H          H       0.53745   0.60283   0.96013   0.07573
H          H       0.07131   0.58310   0.98347   0.10847
H          H       0.00942   0.58553   0.09752   0.10378
H          H       0.39669   0.92596   0.41749   0.07405
H          H       0.49425   0.93525   0.52774   0.11064
H          H       0.55722  -0.00050   0.06310   0.10191
H          H       0.94012   0.54316   0.05714   0.06795
C          C       0.64118   0.34084   0.98348   0.38047
C          C       0.65901   0.29440  -0.00286   0.37827
C          C       0.70745   0.36021   0.00081   0.37965
C          C       0.35451   0.65575   0.02252   0.37450
C          C       0.33421   0.70010   0.00648   0.37862
C          C       0.28834   0.63618   0.02086   0.37449
C          C       0.60973   0.35107   0.97522  -0.02283
C          C       0.64765   0.25239  -0.00108  -0.02768
C          C       0.75018   0.39131   0.00452  -0.02184
C          C       0.38755   0.64771   0.02862  -0.02763
C          C       0.34408   0.74086  -0.00165  -0.03060
C          C       0.24594   0.60599   0.02851   0.00367
C          C       0.61911   0.38916   0.96064  -0.07849
C          C       0.60669   0.21818   0.96725  -0.06505
C          C       0.78066   0.38299   0.02141  -0.07276
C          C       0.38109   0.61015   0.03993  -0.07392
C          C       0.38469   0.77506   0.02515  -0.06207
C          C       0.21677   0.61778   0.03002  -0.09181
C          C       0.58984   0.40003   0.96011  -0.18767
C          C       0.59575   0.17847   0.96889  -0.18923
C          C       0.82115   0.41235   0.02697  -0.19709
C          C       0.41258   0.60234   0.03968  -0.18778
C          C       0.39471   0.81420   0.02122  -0.18465
C          C       0.17621   0.58830   0.02176  -0.18094
C          C       0.55003   0.37267   0.97551   0.19811
C          C       0.62604   0.17248   0.00631   0.20530
C          C       0.83203   0.45114   0.01519   0.18885
C          C       0.45158   0.63237   0.02723   0.20154
C          C       0.36374   0.81958   0.98585   0.20135
C          C       0.16406   0.54643   0.01122   0.18815
C          C       0.54009   0.33407   0.98767  -0.20377
C          C       0.66719   0.20603   0.03504  -0.22510
C          C       0.80177   0.45970  -0.00270  -0.21107
C          C       0.45845   0.67032   0.01753  -0.20459
C          C       0.32290   0.78575   0.96012  -0.22501
C          C       0.19276   0.53514   0.01688  -0.16437
C          C       0.56959   0.32351   0.98733  -0.07899
C          C       0.67763   0.24532   0.03135  -0.07952
C          C       0.76152   0.43018   0.99216  -0.07840
C          C       0.42687   0.67777   0.01836  -0.07309
C          C       0.31337   0.74698   0.96641  -0.07910
C          C       0.23370   0.56509   0.02676  -0.08780
C          C       0.49054   0.41789   0.49756  -0.05536
C          C       0.58086   0.07147   0.53134  -0.03424
C          C       0.93241   0.51313   0.50180  -0.04260
C          C       0.50465   0.57256   0.50153  -0.05436
C          C       0.42235   0.92626   0.46142  -0.03209
C          C       0.07277   0.50674   0.60333   0.04519
C          C       0.49449   0.45686   0.49633   0.06169
C          C       0.54055   0.03518   0.51482   0.06608
C          C       0.96753   0.50992   0.51730   0.05940
C          C       0.50080   0.53417   0.50709   0.06415
C          C       0.46273   0.96234   0.47780   0.06706
C          C       0.03653   0.50613   0.56043   0.05031
C          C       0.52956   0.48602   0.45597  -0.12656
C          C       0.50555   0.03463   0.48037  -0.11641
C          C       0.96339   0.47217   0.52178  -0.11889
C          C       0.46588   0.50522   0.54891  -0.12578
C          C       0.49771   0.96296   0.51308  -0.11541
C          C       0.04066   0.54287   0.54936  -0.13495
C          C       0.46282   0.46733   0.54268  -0.13633
C          C       0.53584   0.99881   0.53152  -0.13878
C          C       0.00669   0.54467   0.52713  -0.13956
C          C       0.53249   0.52372   0.46116  -0.13885
C          C       0.46741   0.99871   0.46147  -0.13431
C          C       0.99727   0.47017   0.54135  -0.12981
C          C       0.63891   0.33712   0.48453   0.37766
C          C       0.66054   0.29367   0.49847   0.37571
C          C       0.70606   0.36041   0.50270   0.38218
C          C       0.36157   0.66073   0.51957   0.37661
C          C       0.34203   0.70563   0.50476   0.37502
C          C       0.29485   0.63954   0.50123   0.37473
C          C       0.60621   0.34526   0.47446  -0.02230
C          C       0.65128   0.25243   0.50148  -0.02561
C          C       0.74768   0.39377   0.50670  -0.03129
C          C       0.39323   0.65099   0.52889  -0.02365
C          C       0.35191   0.74696   0.50149  -0.02909
C          C       0.25295   0.60789   0.50220  -0.02000
C          C       0.61448   0.38338   0.46278  -0.07473
C          C       0.61086   0.21753   0.47204  -0.06894
C          C       0.78045   0.38887   0.52291  -0.07287
C          C       0.38364   0.61286   0.54360  -0.07472
C          C       0.39235   0.78139   0.52805  -0.06475
C          C       0.22114   0.61489   0.49186  -0.08382
C          C       0.58427   0.39275   0.46080  -0.18700
C          C       0.60141   0.17838   0.47441  -0.18605
C          C       0.81968   0.42020   0.52427  -0.20528
C          C       0.41264   0.60159   0.54301  -0.18553
C          C       0.40173   0.82050   0.52541  -0.18788
C          C       0.18189   0.58547   0.49869  -0.19099
C          C       0.54466   0.36367   0.47127   0.20031
C          C       0.63288   0.17359   0.50891   0.19847
C          C       0.82675   0.45740   0.50834   0.19748
C          C       0.45242   0.62869   0.52646   0.19657
C          C       0.37027   0.82540   0.49177   0.20351
C          C       0.17382   0.54841   0.51775   0.20303
C          C       0.53593   0.32514   0.48113  -0.21003
C          C       0.67348   0.20796   0.53659  -0.22383
C          C       0.79428   0.46306   0.49452  -0.21097
C          C       0.46255   0.66747   0.51523  -0.20618
C          C       0.32966   0.79156   0.46778  -0.22575
C          C       0.20546   0.54099   0.52682  -0.18745
C          C       0.56637   0.31609   0.48247  -0.07627
C          C       0.68244   0.24693   0.53331  -0.08314
C          C       0.75535   0.43154   0.49348  -0.07933
C          C       0.43332   0.67844   0.51646  -0.07755
C          C       0.32074   0.75282   0.47246  -0.08150
C          C       0.24437   0.57030   0.51845  -0.08437
C          C       0.49789   0.42888  -0.00049  -0.05895
C          C       0.57304   0.07048   0.03197  -0.04076
C          C       0.93904   0.51320   0.04797  -0.04765
C          C       0.51023   0.58279   0.00182  -0.05576
C          C       0.41633   0.92217   0.96505  -0.03195
C          C       0.07612   0.50286   0.76668   0.06696
C          C       0.50188   0.46754   0.99539   0.06615
C          C       0.53306   0.03348   0.01490   0.07088
C          C       0.97726   0.51408   0.03429   0.07627
C          C       0.50755   0.54460   0.00544   0.06084
C          C       0.45631   0.95906   0.98123   0.06414
C          C       0.04808   0.51161   0.90634   0.02285
C          C       0.53671   0.49679   0.95420  -0.12761
C          C       0.49717   0.03117   0.97910  -0.11777
C          C       0.98158   0.47564   0.98592  -0.11625
C          C       0.47274   0.51535   0.04661  -0.12921
C          C       0.49216   0.96123   0.01632  -0.11336
C          C       0.04639   0.55318   0.98616  -0.12307
C          C       0.47009   0.47783   0.04170  -0.13656
C          C       0.52974   0.99783   0.03321  -0.13629
C          C       0.01151   0.55440   0.04915  -0.13588
C          C       0.53947   0.53454   0.96002  -0.13693
C          C       0.45963   0.99465   0.96251  -0.13610
C          C       0.01667   0.47458   0.92290  -0.11407
N          N       0.62921   0.30192   0.98496  -0.42328
N          N       0.69863   0.32275   0.00688  -0.42796
N          N       0.67996   0.37112   0.99078  -0.43091
N          N       0.36474   0.69330   0.01391  -0.41373
N          N       0.29539   0.67227   0.00892  -0.42142
N          N       0.31646   0.62570   0.02520  -0.42294
N          N       0.51949   0.38216   0.97738  -0.18216
N          N       0.61693   0.13413   0.01595  -0.18542
N          N       0.87187   0.48271   0.02273  -0.17793
N          N       0.48438   0.62649   0.02681  -0.18651
N          N       0.37236   0.85782   0.97674  -0.19534
N          N       0.12076   0.51270   0.97193  -0.25306
N          N       0.52639   0.41822   0.96482  -0.12280
N          N       0.57833   0.10167  -0.00322  -0.11937
N          N       0.90412   0.47845   0.03172  -0.12448
N          N       0.48047   0.59139   0.03790  -0.12543
N          N       0.41103   0.89080  -0.00195  -0.12407
N          N       0.10675   0.49920   0.79091  -0.18115
N          N       0.62914   0.29883   0.48632  -0.42399
N          N       0.69960   0.32346   0.50714  -0.42915
N          N       0.67687   0.36901   0.49324  -0.43102
N          N       0.37267   0.69952   0.51861  -0.42464
N          N       0.30259   0.67652   0.49444  -0.42680
N          N       0.32317   0.62975   0.51114  -0.42716
N          N       0.51312   0.37131   0.46908  -0.17841
N          N       0.62484   0.13531   0.51609  -0.19355
N          N       0.86537   0.48888   0.50419  -0.18243
N          N       0.48289   0.61903   0.52310  -0.18100
N          N       0.37820   0.86332   0.48216  -0.19251
N          N       0.13619   0.51960   0.53955  -0.14558
N          N       0.51938   0.40777   0.46147  -0.12630
N          N       0.58635   0.10257   0.49699  -0.12301
N          N       0.89761   0.48581   0.52334  -0.13462
N          N       0.47621   0.58335   0.53788  -0.12677
N          N       0.41676   0.89549   0.49864  -0.11946
N          N       0.10325   0.52060   0.51550  -0.16763

