data_crystal

_audit_creation_method 'AiiDA-DDEC plugin'

_cell_length_a        36.84923
_cell_length_b        36.79758
_cell_length_c         8.06168

_cell_angle_alpha     85.24153
_cell_angle_beta     69.71470
_cell_angle_gamma     120.24072

_symmetry_space_group_name_Hall 'P 1'
_symmetry_space_group_name_H-M  'P 1'

loop_
_symmetry_equiv_pos_as_xyz
 'x,y,z'

loop_
_atom_site_label
_atom_site_type_symbol
_atom_site_fract_x
_atom_site_fract_y
_atom_site_fract_z
_atom_site_charge
H          H       0.57943   0.24244   0.93786   0.11403
H          H       0.75657   0.32859   0.09641   0.11469
H          H       0.66772   0.43179   0.03154   0.11044
H          H       0.42941   0.76238   0.06091   0.11336
H          H       0.25520   0.67782   0.86686   0.11022
H          H       0.33909   0.57340   0.95137   0.11218
H          H       0.54844   0.16542   0.92175   0.11087
H          H       0.83206   0.37242   0.11725   0.10884
H          H       0.62306   0.46428   0.03799   0.10788
H          H       0.46047   0.83956   0.07721   0.11033
H          H       0.17893   0.63342   0.85194   0.11159
H          H       0.38231   0.53908   0.94239   0.10961
H          H       0.65953   0.17111   0.01030   0.12032
H          H       0.83640   0.49062   0.98893   0.11780
H          H       0.52728   0.35368   0.91783   0.11587
H          H       0.34895   0.83375   0.99364   0.12102
H          H       0.16327   0.51317   0.07046   0.11767
H          H       0.47825   0.64653   0.07497   0.11667
H          H       0.69023   0.24830   0.02548   0.10935
H          H       0.75979   0.44588   0.97149   0.11196
H          H       0.57190   0.32001   0.91915   0.11263
H          H       0.31835   0.75686   0.97564   0.11301
H          H       0.24135   0.55820   0.07516   0.11434
H          H       0.43524   0.68203   0.07635   0.11192
H          H       0.51544   0.09402   0.13521   0.06877
H          H       0.90841   0.42530   0.93987   0.06605
H          H       0.58750   0.48741   0.00894   0.06717
H          H       0.49265   0.91148   0.86728   0.06604
H          H       0.09886   0.58310   0.05897   0.06458
H          H       0.41315   0.51132   0.00035   0.06435
H          H       0.45249   0.01785   0.23324   0.10702
H          H       0.98056   0.43732   0.89785   0.10753
H          H       0.57877   0.54611  -0.00379   0.10688
H          H       0.55477   0.98701   0.77088   0.10666
H          H       0.02572   0.57022   0.10679   0.10602
H          H       0.42271   0.45254   0.00472   0.10748
H          H       0.58828   0.06304   0.80274   0.11850
H          H       0.94747   0.52610   0.10571   0.12109
H          H       0.46976   0.42147   0.00142   0.11594
H          H       0.41899   0.94178   0.20066   0.12089
H          H       0.05847   0.48090   0.90294   0.11948
H          H       0.53203   0.57734  -0.00259   0.11704
H          H       0.57120   0.23821   0.43458   0.11353
H          H       0.74939   0.32303   0.58851   0.11027
H          H       0.66789   0.43338   0.48571   0.11145
H          H       0.42165   0.75810   0.55753   0.11315
H          H       0.24744   0.67144   0.36779   0.11320
H          H       0.32758   0.56450   0.51174   0.11151
H          H       0.54016   0.16101   0.42146   0.10677
H          H       0.82510   0.36557   0.60706   0.10937
H          H       0.62543   0.46823   0.47315   0.11022
H          H       0.45130   0.83391   0.58370   0.11059
H          H       0.17093   0.62633   0.35692   0.11010
H          H       0.37109   0.53075   0.52195   0.10968
H          H       0.65098   0.16690   0.51294   0.12100
H          H       0.83164   0.48518   0.48232   0.11884
H          H       0.51667   0.34798   0.44954   0.11927
H          H       0.34081   0.82942   0.49559   0.12021
H          H       0.15694   0.50691   0.57530   0.11853
H          H       0.48123   0.65319   0.52691   0.12132
H          H       0.68166   0.24436   0.52603   0.11134
H          H       0.75418   0.44145   0.47047   0.11060
H          H       0.56010   0.31355   0.45971   0.11133
H          H       0.31110   0.75296   0.46916   0.11309
H          H       0.23543   0.55289   0.57565   0.11144
H          H       0.43670   0.68647   0.51953   0.11176
H          H       0.50699   0.08954   0.63755   0.06740
H          H       0.90128   0.41654   0.44466   0.06388
H          H       0.56174   0.46720   0.61971   0.06691
H          H       0.48442   0.90547   0.38318   0.06709
H          H       0.09314   0.57761   0.54412   0.06598
H          H       0.43283   0.53031   0.37884   0.06454
H          H       0.44392   0.01359   0.73501   0.10733
H          H       0.97414   0.42941   0.39784   0.10592
H          H       0.55883   0.53137   0.60860   0.10199
H          H       0.54719   0.98039   0.29391   0.10761
H          H       0.01975   0.56338   0.59927   0.10690
H          H       0.43636   0.46711   0.38787   0.10357
H          H       0.58069   0.05692   0.32102   0.12095
H          H       0.94075   0.51829   0.60202   0.12051
H          H       0.47476   0.42910   0.42050   0.11678
H          H       0.41036   0.93709   0.70755   0.12006
H          H       0.05255   0.47405   0.39634   0.12089
H          H       0.52105   0.56974   0.57264   0.11638
C          C       0.65440   0.29520   0.99221   0.37272
C          C       0.70974   0.35874   0.01512   0.37196
C          C       0.64860   0.35407   0.98263   0.37895
C          C       0.35371   0.70948   0.00729   0.37351
C          C       0.29747   0.64639   0.98503   0.37300
C          C       0.35883   0.65022   0.01150   0.37332
C          C       0.63625   0.24975   0.98487  -0.00792
C          C       0.75420   0.38477   0.02839  -0.00458
C          C       0.62287   0.37395   0.97421  -0.00042
C          C       0.37206   0.75485   0.01703  -0.01044
C          C       0.25259   0.62067   0.97491  -0.00922
C          C       0.38410   0.62964   0.01624   0.00137
C          C       0.59593   0.22600   0.95758  -0.08979
C          C       0.77492   0.36423   0.06913  -0.08742
C          C       0.63722   0.41516   0.00483  -0.09107
C          C       0.41257   0.77863   0.04328  -0.09013
C          C       0.23448   0.64176   0.91393  -0.08572
C          C       0.36917   0.58882   0.98109  -0.08972
C          C       0.57840   0.18298   0.95149  -0.18559
C          C       0.81726   0.38886   0.07819  -0.17912
C          C       0.61203   0.43326   0.00709  -0.16959
C          C       0.43023   0.82173   0.04944  -0.18795
C          C       0.19147   0.61692   0.90959  -0.18249
C          C       0.39329   0.56952   0.97831  -0.17225
C          C       0.60103   0.16263   0.97244   0.21093
C          C       0.84040   0.43505   0.04468   0.21491
C          C       0.57185   0.41112   0.97641   0.20657
C          C       0.40734   0.84197   0.03105   0.20684
C          C       0.16488   0.57011   0.97011   0.21094
C          C       0.43300   0.59018   0.01252   0.20438
C          C       0.64220   0.18694   0.99478  -0.16313
C          C       0.81876   0.45523   0.00992  -0.15780
C          C       0.55797   0.37019   0.94357  -0.14633
C          C       0.36619   0.81778   0.00871  -0.16423
C          C       0.18373   0.54919   0.02668  -0.15542
C          C       0.44774   0.63096   0.04794  -0.14941
C          C       0.65917   0.22967   0.00349  -0.08895
C          C       0.77647   0.43054   0.00083  -0.08674
C          C       0.58289   0.35171   0.94365  -0.09476
C          C       0.34926   0.77514  -0.00112  -0.08750
C          C       0.22684   0.57409   0.02922  -0.08981
C          C       0.42380   0.65055   0.04910  -0.09590
C          C       0.54127   0.08896   0.04196   0.06720
C          C       0.91411   0.45283  -0.00320   0.06488
C          C       0.55552   0.46493   0.99521   0.06089
C          C       0.46649   0.91597   0.96202   0.06953
C          C       0.09203   0.55415   0.01121   0.07000
C          C       0.44659   0.53433   0.00325   0.06329
C          C       0.52260   0.04509   0.01994   0.05945
C          C       0.95895   0.47882   0.00317   0.05964
C          C       0.52724   0.48181  -0.00285   0.05554
C          C       0.48472   0.95980   0.98404   0.05717
C          C       0.04715   0.52832   0.00457   0.05957
C          C       0.47459   0.51708   0.00103   0.05620
C          C       0.47458   0.01087   0.13127  -0.12710
C          C       0.99054   0.46620   0.94581  -0.12814
C          C       0.54473   0.52595  -0.00385  -0.12547
C          C       0.53268   0.99405   0.87243  -0.12723
C          C       0.01568   0.54112   0.06052  -0.13121
C          C       0.45694   0.47284   0.00323  -0.12637
C          C       0.55149   0.03619   0.88958  -0.11003
C          C       0.97214   0.51674   0.06080  -0.11173
C          C       0.48276   0.45538   0.00131  -0.10264
C          C       0.45578   0.96870   0.11411  -0.11177
C          C       0.03391   0.49037   0.94705  -0.11150
C          C       0.51905   0.54346  -0.00295  -0.10566
C          C       0.64661   0.29135   0.49070   0.37322
C          C       0.70317   0.35467   0.51036   0.37523
C          C       0.64185   0.35085   0.48327   0.37601
C          C       0.34709   0.70577   0.49836   0.37269
C          C       0.29087   0.64144   0.48334   0.37507
C          C       0.35313   0.64697   0.50785   0.37622
C          C       0.62808   0.24583   0.48284  -0.01056
C          C       0.74763   0.37984   0.52419  -0.00918
C          C       0.61655   0.37121   0.47467  -0.00786
C          C       0.36476   0.75091   0.51016  -0.00847
C          C       0.24574   0.61488   0.47554  -0.00235
C          C       0.37947   0.62763   0.51375  -0.00534
C          C       0.58784   0.22197   0.45503  -0.09079
C          C       0.76799   0.35864   0.56281  -0.08407
C          C       0.63470   0.41499   0.47824  -0.08523
C          C       0.40473   0.77426   0.54025  -0.09032
C          C       0.22697   0.63540   0.41606  -0.09090
C          C       0.36135   0.58361   0.51420  -0.08476
C          C       0.57019   0.17874   0.45059  -0.18238
C          C       0.81060   0.38262   0.57028  -0.18060
C          C       0.61054   0.43405   0.47399  -0.17984
C          C       0.42169   0.81681   0.55172  -0.18267
C          C       0.18389   0.61008   0.41302  -0.17881
C          C       0.38608   0.56516   0.51735  -0.17840
C          C       0.59267   0.15833   0.47323   0.20624
C          C       0.83452   0.42887   0.53701   0.21846
C          C       0.56709   0.40965   0.46750   0.21227
C          C       0.39894   0.83722   0.53376   0.20767
C          C       0.15783   0.56332   0.47328   0.21226
C          C       0.43023   0.59043   0.51773   0.21266
C          C       0.63379   0.18278   0.49573  -0.16414
C          C       0.81330   0.44971   0.50418  -0.15662
C          C       0.54944   0.36611   0.46035  -0.15703
C          C       0.35819   0.81342   0.50833  -0.16044
C          C       0.17706   0.54292   0.53046  -0.15860
C          C       0.44795   0.63432   0.52028  -0.15806
C          C       0.65076   0.22559   0.50315  -0.08564
C          C       0.77062   0.42561   0.49751  -0.08303
C          C       0.57359   0.34711   0.46535  -0.09233
C          C       0.34176   0.77112   0.49404  -0.09156
C          C       0.22039   0.56832   0.53099  -0.08689
C          C       0.42314   0.65269   0.51687  -0.09296
C          C       0.53296   0.08423   0.54737   0.06937
C          C       0.90756   0.44507   0.49488   0.06853
C          C       0.54302   0.45670   0.53381   0.07528
C          C       0.45823   0.91034   0.47511   0.07140
C          C       0.08592   0.54774   0.50361   0.06619
C          C       0.45294   0.54218   0.45898   0.07584
C          C       0.51449   0.03994   0.52970   0.05594
C          C       0.95252   0.47119   0.50017   0.05809
C          C       0.51940   0.47777   0.51549   0.05650
C          C       0.47662   0.95405   0.49898   0.05680
C          C       0.04117   0.52159   0.49686   0.05936
C          C       0.47615   0.52087   0.47926   0.05545
C          C       0.46625   0.00600   0.63833  -0.12792
C          C       0.98418   0.45862   0.44335  -0.12825
C          C       0.53223   0.51753   0.55895  -0.12609
C          C       0.52491   0.98792   0.39133  -0.12874
C          C       0.00950   0.53416   0.55370  -0.12692
C          C       0.46308   0.48094   0.43697  -0.12890
C          C       0.54369   0.03033   0.40569  -0.10940
C          C       0.96574   0.50932   0.55633  -0.11199
C          C       0.48432   0.45962   0.45484  -0.11401
C          C       0.44745   0.96357   0.62388  -0.10834
C          C       0.02786   0.48337   0.44151  -0.11377
C          C       0.51123   0.53902   0.53980  -0.11197
N          N       0.63063   0.31242   0.97449  -0.41479
N          N       0.69366   0.31672   0.01555  -0.41352
N          N       0.68828   0.37873   0.00060  -0.41314
N          N       0.37751   0.69190   0.02042  -0.41886
N          N       0.31413   0.68842   0.98574  -0.41346
N          N       0.31861   0.62590  -0.00310  -0.40989
N          N       0.58575   0.12018   0.95950  -0.27238
N          N       0.88329   0.46217   0.04939  -0.27763
N          N       0.54384   0.42647   0.97636  -0.29452
N          N       0.42222   0.88425   0.04568  -0.27101
N          N       0.12146   0.54309   0.96925  -0.27527
N          N       0.46022   0.57389   0.01138  -0.29068
N          N       0.62266   0.30878   0.47876  -0.42076
N          N       0.68650   0.31264   0.50976  -0.41545
N          N       0.68226   0.37533   0.49650  -0.41566
N          N       0.37166   0.68908   0.51045  -0.41695
N          N       0.30731   0.68379   0.47862  -0.41694
N          N       0.31222   0.62142   0.49929  -0.41324
N          N       0.57739   0.11559   0.46373  -0.27260
N          N       0.87765   0.45559   0.54064  -0.28043
N          N       0.54162   0.42709   0.45526  -0.28536
N          N       0.41375   0.87923   0.55225  -0.27465
N          N       0.11463   0.53587   0.47113  -0.27940
N          N       0.45605   0.57338   0.52936  -0.28590

