data_crystal

_audit_creation_method 'AiiDA-DDEC plugin'

_cell_length_a        28.83024
_cell_length_b        29.81043
_cell_length_c         7.72465

_cell_angle_alpha     108.04223
_cell_angle_beta     99.98205
_cell_angle_gamma     118.48207

_symmetry_space_group_name_Hall 'P 1'
_symmetry_space_group_name_H-M  'P 1'

loop_
_symmetry_equiv_pos_as_xyz
 'x,y,z'

loop_
_atom_site_label
_atom_site_type_symbol
_atom_site_fract_x
_atom_site_fract_y
_atom_site_fract_z
_atom_site_charge
H          H       0.53709   0.72006   0.05882   0.11479
H          H       0.30480   0.83135   0.87599   0.13466
H          H       0.18984   0.48208   0.13739   0.10792
H          H       0.48292   0.31103   0.09211   0.10099
H          H       0.68875   0.16746   0.06907   0.12210
H          H       0.82439   0.54503   0.00231   0.09823
H          H       0.60747   0.87240   0.84485   0.11404
H          H       0.13211   0.76332   0.03965   0.11002
H          H       0.26342   0.36016   0.04952   0.11572
H          H       0.36947   0.10508   0.92629   0.10493
H          H       0.82414   0.20034   0.72760   0.10911
H          H       0.76670   0.67962   0.17459   0.10801
H          H       0.51167   0.82857   0.85833   0.11904
H          H       0.17483   0.70830   0.99238   0.11770
H          H       0.32082   0.45660   0.06991   0.12066
H          H       0.47302   0.15650   0.99394   0.12530
H          H       0.77502   0.24866   0.74492   0.11588
H          H       0.70664   0.58290   0.14816   0.12012
H          H       0.69214   0.91529   0.88373   0.10956
H          H       0.09812   0.81076   0.07880   0.11145
H          H       0.21692   0.28471   0.05071   0.10913
H          H       0.28660   0.06776   0.89514   0.10868
H          H       0.87224   0.16857   0.75265   0.10584
H          H       0.82195   0.76162   0.21337   0.11080
H          H       0.79322   0.82716   0.03139   0.12636
H          H       0.19958   0.98687   0.99578   0.12370
H          H       0.01624   0.21448   0.98335   0.13053
H          H       0.21176   0.18874   0.94376   0.12829
H          H       0.83453   0.05324   0.12195   0.13342
H          H       0.97089   0.78508   0.93638   0.13007
H          H       0.79117   0.95850   0.91194   0.11233
H          H       0.05635   0.86587   0.07693   0.11451
H          H       0.15170   0.18884   0.01895   0.10613
H          H       0.19012   0.03082   0.88850   0.10932
H          H       0.92663   0.12760   0.79297   0.11877
H          H       0.87902   0.84952   0.17985   0.11868
H          H       0.85113   0.95251   0.79497   0.07858
H          H       0.01750   0.88631   0.84701   0.08101
H          H       0.07865   0.10609   0.79930   0.08721
H          H       0.10708   0.00228   0.78656   0.08043
H          H       0.94205   0.06742   0.75937   0.07543
H          H       0.88655   0.86191   0.86945   0.08085
H          H       0.25727   0.71979   0.14545   0.08820
H          H       0.22067   0.52363   0.95210   0.06064
H          H       0.45122   0.67094   0.94484   0.07422
H          H       0.77244   0.31583   0.94273   0.09250
H          H       0.79031   0.49427   0.14437   0.05680
H          H       0.54131   0.31556   0.94946   0.05607
H          H       0.31129   0.98782   0.84221   0.09985
H          H       0.01430   0.34404   0.12199   0.11111
H          H       0.70192   0.72137   0.18002   0.10074
H          H       0.71841   0.04272   0.26044   0.10602
H          H       0.00490   0.69334   0.06609   0.09792
H          H       0.34188   0.33901   0.09401   0.09832
H          H       0.40849   0.05228   0.85562   0.09519
H          H       0.95517   0.38222   0.09264   0.09797
H          H       0.67217   0.63351   0.22137   0.09782
H          H       0.62841   0.97031   0.26443   0.09841
H          H       0.06116   0.65122   0.05006   0.09595
H          H       0.38781   0.43610   0.11046   0.09124
H          H       0.48739   0.04432   0.99334   0.10012
H          H       0.98459   0.46149  -0.00162   0.10001
H          H       0.56922   0.55607   0.09839   0.10404
H          H       0.53642   0.95412   0.09211   0.09978
H          H       0.01347   0.54749   0.96211   0.09605
H          H       0.46898   0.47308   0.00241   0.09820
H          H       0.37185   0.90732   0.09764   0.10380
H          H       0.12421   0.45389   0.91370   0.09080
H          H       0.52570   0.65182   0.87672   0.08588
H          H       0.62481   0.08328   0.91366   0.10100
H          H       0.85110   0.52461   0.82616   0.10092
H          H       0.45116   0.31231   0.82749   0.10105
H          H       0.07074   0.49730   0.91156   0.09648
H          H       0.49603   0.56698   0.92715   0.09528
H          H       0.46714   0.96934   0.10450   0.09593
H          H       0.90786   0.48572   0.85548   0.09616
H          H       0.50012   0.41019   0.85934   0.10011
H          H       0.53633   0.01333   0.92516   0.09436
H          H       0.38343   0.58937   0.83340   0.33926
H          H       0.42107   0.76458   0.97715   0.29691
H          H       0.21826   0.58828   0.10589   0.35945
H          H       0.60143   0.40010   0.13193   0.35278
H          H       0.65334   0.23630   0.98353   0.29497
H          H       0.79810   0.43878   0.98200   0.36634
H          H       0.86810   0.37362   0.51575   0.10246
H          H       0.64464   0.50279   0.49110   0.12272
H          H       0.47769   0.13142   0.53844   0.12761
H          H       0.15211   0.63453   0.59783   0.10872
H          H       0.35369   0.47251   0.50012   0.12150
H          H       0.49027   0.87424   0.57939   0.10420
H          H       0.87473   0.51310   0.43738   0.13445
H          H       0.50426   0.35701   0.49027   0.13657
H          H       0.62311   0.12244   0.54592   0.12990
H          H       0.13440   0.47898   0.55024   0.14107
H          H       0.49585   0.61978   0.50928   0.13389
H          H       0.33674   0.87094   0.50525   0.14158
H          H       0.21006   0.63573   0.47383   0.06039
H          H       0.43385   0.63007   0.41755   0.09540
H          H       0.42479   0.78628   0.42732   0.03469
H          H       0.78298   0.33860   0.36334   0.03092
H          H       0.56723   0.34468   0.57346   0.09347
H          H       0.64514   0.18748   0.46208   0.09527
H          H       0.63768   0.67279   0.57417   0.10446
H          H       0.31023   0.98862   0.55306   0.10371
H          H       0.02451   0.35876   0.62876   0.10400
H          H       0.34603   0.30242   0.34610   0.10639
H          H       0.66372   0.02940   0.69329   0.09696
H          H       0.00523   0.66233   0.61253   0.11313
H          H       0.73486   0.75006   0.63484   0.10129
H          H       0.24679   0.02249   0.51146   0.10221
H          H       0.98397   0.26602   0.64073   0.11021
H          H       0.25124   0.23517   0.34000   0.10683
H          H       0.72638   0.99424   0.68936   0.10353
H          H       0.04625   0.75910   0.62938   0.10332
H          H       0.81376   0.73481   0.67442   0.09724
H          H       0.26756   0.09198   0.37337   0.10882
H          H       0.87779   0.19267   0.48129   0.09597
H          H       0.20197   0.27324   0.50724   0.10986
H          H       0.68266   0.88918   0.50504   0.10549
H          H       0.12881   0.80139   0.53021   0.10499
H          H       0.70061   0.57167   0.64220   0.10464
H          H       0.40831   0.08618   0.28951   0.09959
H          H       0.85646   0.30573   0.29664   0.08772
H          H       0.34593   0.44497   0.70739   0.10186
H          H       0.51576   0.85737   0.33543   0.09518
H          H       0.12473   0.64782   0.37630   0.09971
H          H       0.34855   0.12300   0.26112   0.09978
H          H       0.81544   0.21474   0.31596   0.08772
H          H       0.79356   0.64368   0.67231   0.10686
H          H       0.57769   0.82206   0.33154   0.09590
H          H       0.16795   0.74501   0.40543   0.10193
H          H       0.25021   0.37843   0.68935   0.10196
H          H       0.75528   0.28203   0.40652   0.34938
H          H       0.67897   0.42910   0.49989   0.30540
H          H       0.56157   0.22620   0.55367   0.29274
H          H       0.28486   0.73067   0.72449   0.28902
H          H       0.32397   0.55603   0.52041   0.31011
H          H       0.45446   0.74925   0.44033   0.34896
C          C       0.51662   0.76870   0.94804   0.20578
C          C       0.24462   0.76894   0.94209   0.19033
C          C       0.25668   0.47347   0.08837   0.19606
C          C       0.48402   0.23653   0.03730   0.20787
C          C       0.73085   0.21302   0.91857   0.20011
C          C       0.76193   0.55762   0.07319   0.19955
C          C       0.55060   0.74979  -0.00393  -0.21827
C          C       0.26892   0.81916   0.92227  -0.18477
C          C       0.20302   0.45307   0.09940  -0.20259
C          C       0.45720   0.26521   0.04346  -0.21836
C          C       0.71736   0.17272   0.99076  -0.20323
C          C       0.81227   0.57483   0.03880  -0.21064
C          C       0.60381   0.77092   0.97723   0.00477
C          C       0.24821   0.85397   0.96548   0.00251
C          C       0.16653   0.39614   0.06604   0.00285
C          C       0.39763   0.23611   0.98987   0.00172
C          C       0.74306   0.14234   0.97518   0.00277
C          C       0.84615   0.62836   0.04152   0.00101
C          C       0.62619   0.81788   0.92935   0.04732
C          C       0.19715   0.83315   0.00584   0.04824
C          C       0.18907   0.36200   0.05087   0.04413
C          C       0.36535   0.17756   0.95314   0.04244
C          C       0.78540   0.15530   0.89004   0.04515
C          C       0.82997   0.66777   0.09482   0.04203
C          C       0.59159   0.83743   0.88480  -0.11552
C          C       0.17168   0.78039   0.01482  -0.11206
C          C       0.24569   0.38545   0.05934  -0.11796
C          C       0.39362   0.14969   0.95580  -0.12486
C          C       0.79458   0.19258   0.80269  -0.10003
C          C       0.78006   0.65059   0.13748  -0.12473
C          C       0.53787   0.81311   0.89132  -0.15229
C          C       0.19525   0.74918   0.98743  -0.16815
C          C       0.27836   0.43939   0.07314  -0.15043
C          C       0.45134   0.17803   0.99458  -0.14393
C          C       0.76774   0.22058   0.81451  -0.16574
C          C       0.74601   0.59659   0.12225  -0.14132
C          C       0.68391   0.84484   0.93719  -0.02083
C          C       0.17162   0.86493   0.02404  -0.01860
C          C       0.15347   0.30499   0.02881  -0.01723
C          C       0.30616   0.15062   0.92635  -0.01615
C          C       0.81911   0.13243   0.90504  -0.01993
C          C       0.86318   0.72199   0.09228  -0.02059
C          C       0.71325   0.89481   0.91213  -0.11314
C          C       0.12001   0.84838   0.05480  -0.11589
C          C       0.17268   0.26932   0.02868  -0.10821
C          C       0.27059   0.09449   0.90364  -0.11036
C          C       0.86258   0.14222   0.82949  -0.10256
C          C       0.85417   0.76612   0.15157  -0.10835
C          C       0.71411   0.82088   0.98292   0.18947
C          C       0.19965   0.91575   0.00126   0.19407
C          C       0.09607   0.28431   0.01189   0.19212
C          C       0.28317   0.18399   0.93560   0.19140
C          C       0.80958   0.09993   0.01258   0.19023
C          C       0.90726   0.73070   0.01867   0.19285
C          C       0.77132   0.84658  -0.00120  -0.23580
C          C       0.17555   0.94728   0.00570  -0.23616
C          C       0.05945   0.22884   0.99244  -0.23509
C          C       0.22748   0.16180   0.93382  -0.23265
C          C       0.84255   0.07803   0.03974  -0.23539
C          C       0.93851   0.78075  -0.00303  -0.25086
C          C       0.79909   0.89487   0.96868   0.21029
C          C       0.12289   0.92829   0.02160   0.21114
C          C       0.07867   0.19361   0.98533   0.21097
C          C       0.19379   0.10723   0.91941   0.20712
C          C       0.88279   0.08523   0.95519   0.21609
C          C       0.92747   0.82262   0.04918   0.20764
C          C       0.76927   0.91931   0.92700  -0.17407
C          C       0.09576   0.87876   0.05174  -0.18000
C          C       0.13631   0.21520   0.00830  -0.17850
C          C       0.21599   0.07331   0.89974  -0.17784
C          C       0.89359   0.11921   0.85289  -0.17138
C          C       0.88551   0.81533   0.13139  -0.18629
C          C       0.87687   0.94574   0.89244   0.08739
C          C       0.04552   0.93313   0.92155   0.08571
C          C       0.04969   0.09934   0.87756   0.08371
C          C       0.10169   0.03553   0.86812   0.08770
C          C       0.93757   0.05143   0.86970   0.09429
C          C       0.93325   0.88806   0.93718   0.08632
C          C       0.93554   0.96929   0.90074   0.00237
C          C       0.01813   0.96351   0.90880   0.00550
C          C       0.01967   0.04394   0.88113   0.00821
C          C       0.04627   0.01458   0.88787   0.00490
C          C       0.96440   0.02084   0.88469   0.00399
C          C       0.96301   0.94097   0.91649   0.00143
C          C       0.63769   0.74801   0.00887   0.17530
C          C       0.27578   0.90985   0.96758   0.18196
C          C       0.10641   0.36944   0.03914   0.17459
C          C       0.36726   0.26292   0.96924   0.18128
C          C       0.73153   0.10099   0.05320   0.17192
C          C       0.89596   0.64501   0.98737   0.18122
C          C       0.27809   0.63630   0.03973   0.28929
C          C       0.35016   0.62142   0.97969   0.31339
C          C       0.35584   0.70775  -0.00405   0.30746
C          C       0.73279   0.38158   0.00561   0.28314
C          C       0.65428   0.38644   0.05024   0.30038
C          C       0.65193   0.30128   0.01449   0.32157
C          C       0.30035   0.60261   0.02065  -0.20376
C          C       0.38044   0.67548   0.98001  -0.24621
C          C       0.30318   0.68697   0.01949  -0.20255
C          C       0.70915   0.41376   0.04087  -0.20667
C          C       0.62492   0.33072   0.03500  -0.21886
C          C       0.70542   0.32592   0.99143  -0.22230
C          C       0.27511   0.71667   0.03115   0.15628
C          C       0.26766   0.54760   0.02120   0.09929
C          C       0.43430   0.69731   0.96093   0.10141
C          C       0.73133   0.29517   0.95820   0.11225
C          C       0.74362   0.47327   0.07897   0.10297
C          C       0.56619   0.30269   0.02046   0.09908
C          C       0.33357   0.94174   0.96182   0.03471
C          C       0.07575   0.39790   0.03131   0.03462
C          C       0.61636   0.69509   0.03510   0.03195
C          C       0.67907   0.06939   0.09031   0.02072
C          C       0.92417   0.61372   0.96352   0.03764
C          C       0.39533   0.31998   0.97116   0.04240
C          C       0.34572   0.98365   0.89591  -0.11573
C          C       0.02626   0.37748   0.07533  -0.09918
C          C       0.65692   0.68756   0.12753  -0.10908
C          C       0.67852   0.03687   0.19066  -0.10895
C          C       0.98396   0.64768   0.01778  -0.11051
C          C       0.37670   0.35522   0.04377  -0.11261
C          C       0.40033   0.02011   0.90661  -0.08409
C          C       0.99330   0.39925   0.05902  -0.07859
C          C       0.64005   0.63789   0.14754  -0.08292
C          C       0.62781   0.99578   0.19059  -0.07964
C          C       0.01542   0.62394   0.01107  -0.08178
C          C       0.40252   0.40941   0.05229  -0.09036
C          C       0.44449   0.01526   0.98216  -0.09163
C          C       0.00977   0.44368   0.00597  -0.09664
C          C       0.58211   0.59442   0.07940  -0.07464
C          C       0.57620   0.98696   0.09479  -0.07846
C          C       0.98871   0.56586   0.96061  -0.08292
C          C       0.44818   0.43024   0.99171  -0.08518
C          C       0.37838   0.93707   0.03641  -0.12095
C          C       0.09015   0.44079   0.96860  -0.13043
C          C       0.55829   0.65026   0.96307  -0.13316
C          C       0.62706   0.06125  -0.00015  -0.13015
C          C       0.89729   0.55435   0.89613  -0.13649
C          C       0.43899   0.34018   0.89920  -0.13113
C          C       0.05839   0.46431   0.96077  -0.09090
C          C       0.54133   0.60091   0.98678  -0.09347
C          C       0.43299   0.97314   0.04394  -0.08928
C          C       0.92964   0.53143   0.90303  -0.08366
C          C       0.46590   0.39518   0.91298  -0.08463
C          C       0.57628   0.02055   0.00317  -0.10067
C          C       0.86334   0.43858   0.46341   0.20009
C          C       0.58038   0.43007   0.50278   0.21246
C          C       0.55187   0.13171   0.53342   0.21178
C          C       0.14870   0.55829   0.56451   0.21129
C          C       0.42086   0.54872   0.50832   0.20997
C          C       0.40957   0.86538   0.53367   0.21234
C          C       0.88897   0.40913   0.48128  -0.22811
C          C       0.60383   0.48410   0.50600  -0.19951
C          C       0.49561   0.10634   0.52727  -0.18895
C          C       0.12442   0.58970   0.56182  -0.22402
C          C       0.39752   0.49523   0.51033  -0.21146
C          C       0.46641   0.89167   0.54493  -0.21823
C          C       0.94323   0.42776   0.47417   0.00790
C          C       0.57573   0.51192   0.52501   0.01089
C          C       0.46352   0.05025   0.50413   0.00931
C          C       0.06569   0.56422   0.51713   0.00835
C          C       0.42914   0.47114   0.51835   0.00567
C          C       0.49363   0.94178   0.52298   0.00668
C          C       0.97440   0.48130   0.46896  -0.03186
C          C       0.51911   0.48023   0.52091  -0.02419
C          C       0.49212   0.02240   0.51080  -0.02956
C          C       0.03243   0.50744   0.49669  -0.03117
C          C       0.48535   0.50210   0.51978  -0.02877
C          C       0.46390   0.96813   0.50554  -0.03371
C          C       0.94943   0.51195   0.45339   0.19012
C          C       0.49368   0.42430   0.50777   0.19773
C          C       0.55010   0.04907   0.52806   0.18994
C          C       0.05749   0.47709   0.51574   0.18796
C          C       0.50886   0.55553   0.51427   0.20082
C          C       0.40662   0.94233   0.49561   0.19082
C          C       0.89333   0.48908   0.44418  -0.21060
C          C       0.52490   0.39979   0.50057  -0.24103
C          C       0.57923   0.10343   0.53574  -0.23666
C          C       0.11534   0.50267   0.54495  -0.22462
C          C       0.47584   0.57787   0.50595  -0.24223
C          C       0.38010   0.89086   0.50948  -0.20849
C          C       0.23196   0.61927   0.53665   0.10442
C          C       0.40050   0.61439   0.47547   0.13665
C          C       0.39314   0.77809   0.49755   0.10205
C          C       0.77442   0.37022   0.43957   0.10527
C          C       0.60396   0.36643   0.53571   0.13943
C          C       0.62331   0.20861   0.49600   0.12064
C          C       0.29010   0.64519   0.54387  -0.23285
C          C       0.37104   0.64196   0.49602  -0.22303
C          C       0.36783   0.72468   0.51049  -0.22911
C          C       0.72162   0.34579   0.47186  -0.22093
C          C       0.63784   0.34362   0.52352  -0.23262
C          C       0.64581   0.26313   0.49666  -0.22008
C          C       0.31888   0.61763   0.52686   0.30745
C          C       0.39272   0.69347   0.47888   0.28093
C          C       0.31764   0.70077   0.55348   0.32488
C          C       0.69065   0.37156   0.49980   0.32295
C          C       0.61636   0.29029   0.52749   0.32816
C          C       0.69680   0.29095   0.46520   0.28681
C          C       0.97224   0.39897   0.48335   0.17311
C          C       0.59831   0.57003   0.54677   0.18713
C          C       0.40280   0.01703   0.47053   0.17718
C          C       0.03509   0.59067   0.49032   0.17685
C          C       0.40886   0.41567   0.51707   0.18050
C          C       0.55152   0.97125   0.52740   0.17635
C          C       0.65917   0.61407   0.58966   0.02118
C          C       0.36621   0.03803   0.43808   0.02950
C          C       0.94390   0.34094   0.47364   0.03280
C          C       0.35200   0.37842   0.51915   0.02360
C          C       0.58549   0.94627   0.52494   0.03356
C          C       0.06316   0.64879   0.50068   0.03285
C          C       0.67217   0.66688   0.59714  -0.09633
C          C       0.31871   0.01895   0.49307  -0.11538
C          C       0.97873   0.32695   0.56180  -0.09833
C          C       0.32463   0.31863   0.42043  -0.10843
C          C       0.64537   0.98394   0.62001  -0.10434
C          C       0.04097   0.68094   0.56797  -0.10876
C          C       0.72693   0.71004   0.62958  -0.09345
C          C       0.28338   0.03786   0.46901  -0.08406
C          C       0.95564   0.27455   0.56667  -0.07855
C          C       0.27144   0.28113   0.41762  -0.08162
C          C       0.68024   0.96396   0.61433  -0.08334
C          C       0.06392   0.73496   0.57634  -0.08478
C          C       0.77097   0.70175   0.65228  -0.08381
C          C       0.29472   0.07661   0.39001  -0.06937
C          C       0.89645   0.23409   0.48064  -0.08518
C          C       0.24394   0.30245   0.51189  -0.07333
C          C       0.65584   0.90529   0.51133  -0.08545
C          C       0.11019   0.75871   0.52011  -0.08281
C          C       0.70522   0.60817   0.62593  -0.12911
C          C       0.37538   0.07473   0.34972  -0.11875
C          C       0.88456   0.29880   0.38064  -0.14117
C          C       0.32466   0.39927   0.61881  -0.12729
C          C       0.56152   0.88744   0.42034  -0.13857
C          C       0.10884   0.67269   0.44044  -0.12956
C          C       0.34041   0.09433   0.32853  -0.09486
C          C       0.86127   0.24643   0.38718  -0.10479
C          C       0.75964   0.65056   0.65082  -0.08887
C          C       0.59655   0.86741   0.41546  -0.09581
C          C       0.13245   0.72732   0.45200  -0.09578
C          C       0.27084   0.36156   0.61264  -0.09443
N          N       0.46302   0.74730   0.96164  -0.30138
N          N       0.27098   0.73907   0.91472  -0.23989
N          N       0.29152   0.52674   0.09384  -0.25708
N          N       0.54207   0.26243   0.07165  -0.25869
N          N       0.70692   0.24445   0.95320  -0.30965
N          N       0.72387   0.50190   0.04572  -0.25486
N          N       0.85609   0.91736   0.98745  -0.28054
N          N       0.09993   0.96028   0.01338  -0.27058
N          N       0.04294   0.13884   0.96950  -0.25842
N          N       0.14077   0.08947   0.93670  -0.27330
N          N       0.90910   0.05691   0.97663  -0.29358
N          N       0.96002   0.87282   0.03035  -0.26502
N          N       0.69010   0.77281   0.01164  -0.32131
N          N       0.25106   0.93761   0.98014  -0.32427
N          N       0.07387   0.31617   0.01166  -0.33144
N          N       0.31302   0.23782   0.94649  -0.33377
N          N       0.76598   0.08420   0.07875  -0.33354
N          N       0.92258   0.69276   0.96987  -0.34217
N          N       0.81155   0.42349   0.48893  -0.27131
N          N       0.61569   0.40976   0.49859  -0.32406
N          N       0.57702   0.18515   0.53291  -0.27167
N          N       0.20606   0.57992   0.59012  -0.28198
N          N       0.38846   0.57255   0.52295  -0.34698
N          N       0.38048   0.81506   0.55305  -0.26129
N          N       0.02630   0.42321   0.50221  -0.32985
N          N       0.56429   0.58792   0.53252  -0.32683
N          N       0.37713   0.96650   0.47064  -0.33244
N          N       0.97999   0.56469   0.45719  -0.32513
N          N       0.43971   0.39404   0.50687  -0.32760
N          N       0.57776   0.02227   0.53215  -0.33139
O          O       0.22904   0.62004   0.07330  -0.40932
O          O       0.36813   0.58601   0.93621  -0.41178
O          O       0.38341   0.75829   0.99454  -0.39407
O          O       0.78389   0.40213   0.98434  -0.42125
O          O       0.63166   0.41762   0.08524  -0.40204
O          O       0.62646   0.24986   0.00754  -0.38607
O          O       0.29613   0.56753   0.53258  -0.37945
O          O       0.44162   0.71280   0.44271  -0.41491
O          O       0.29566   0.73106   0.60066  -0.42064
O          O       0.71086   0.42212   0.49979  -0.38355
O          O       0.56819   0.26534   0.55608  -0.40108
O          O       0.72167   0.26146   0.43481  -0.42222

