data_crystal

_audit_creation_method 'AiiDA-DDEC plugin'

_cell_length_a        29.09519
_cell_length_b        28.74066
_cell_length_c         7.67171

_cell_angle_alpha     91.18036
_cell_angle_beta     88.39396
_cell_angle_gamma     120.25657

_symmetry_space_group_name_Hall 'P 1'
_symmetry_space_group_name_H-M  'P 1'

loop_
_symmetry_equiv_pos_as_xyz
 'x,y,z'

loop_
_atom_site_label
_atom_site_type_symbol
_atom_site_fract_x
_atom_site_fract_y
_atom_site_fract_z
_atom_site_charge
H          H       0.19617   0.03164   0.17229   0.10467
H          H       0.96289   0.16668   0.19326   0.10416
H          H       0.83659   0.80424   0.18655   0.10355
H          H       0.29468   0.20821   0.38235   0.10435
H          H       0.78982   0.08315   0.38944   0.10270
H          H       0.91367   0.70670   0.36771   0.10419
H          H       0.20523   0.17588   0.98707   0.12697
H          H       0.82278   0.02606   0.01163   0.12376
H          H       0.97316   0.80124   0.97463   0.12485
H          H       0.12898   0.89263   0.41331   0.10211
H          H       0.10221   0.23659   0.41336   0.09956
H          H       0.76603   0.87114   0.41555   0.10408
H          H       0.13338   0.03023   0.32450   0.04505
H          H       0.98895   0.10988   0.13863   0.03799
H          H       0.89419   0.86957   0.31684   0.04394
H          H       0.32419   0.97686   0.45543   0.09293
H          H       0.01644   0.34762   0.44742   0.09190
H          H       0.65295   0.67384   0.47902   0.09220
H          H       0.27134   0.88224   0.39022   0.09686
H          H       0.11030   0.38970   0.38122   0.09661
H          H       0.61228   0.72718   0.42728   0.09735
H          H       0.17228   0.83662   0.37448   0.09491
H          H       0.15654   0.33621   0.36971   0.09404
H          H       0.66687   0.82740   0.40214   0.09697
H          H       0.18148   0.98825   0.47696   0.08087
H          H       0.00752   0.19324   0.48056   0.07906
H          H       0.80788   0.81826   0.46753   0.08036
H          H       0.04513   0.13063   0.27920   0.34422
H          H       0.87676   0.91856   0.23958   0.33903
H          H       0.08330   0.95897   0.29080   0.34149
H          H       0.36592   0.22818   0.27068   0.10995
H          H       0.77124   0.13314   0.26859   0.10953
H          H       0.86242   0.63246   0.26917   0.10761
H          H       0.45246   0.13423   0.51739   0.12899
H          H       0.85962   0.31787   0.51742   0.12786
H          H       0.68014   0.54436   0.52575   0.12310
H          H       0.46351   0.27079   0.25873   0.12299
H          H       0.72719   0.18699   0.25799   0.12242
H          H       0.80664   0.53383   0.26273   0.11825
H          H       0.53647   0.31085   0.41176   0.10373
H          H       0.68520   0.22156   0.40447   0.10373
H          H       0.77236   0.46199   0.42200   0.08649
H          H       0.54271   0.20931   0.93588   0.27699
H          H       0.78499   0.34761   0.92212   0.29356
H          H       0.67158   0.45714   0.93682   0.27475
H          H       0.39560   0.04000   0.04283   0.11288
H          H       0.95551   0.35624   0.03039   0.11096
H          H       0.64731   0.60243   0.05492   0.11107
H          H       0.34126   0.01628   0.19741   0.12726
H          H       0.97976   0.32883   0.18727   0.12785
H          H       0.67599   0.65595   0.21234   0.12724
H          H       0.39857   0.08125   0.22388   0.10927
H          H       0.91514   0.32085   0.21483   0.11098
H          H       0.68322   0.59836   0.23322   0.11030
H          H       0.19695   0.03268   0.68366   0.10526
H          H       0.96164   0.16597   0.69105   0.10542
H          H       0.83479   0.80366   0.67644   0.10362
H          H       0.29891   0.20966   0.88963   0.10437
H          H       0.79096   0.08428   0.89181   0.10336
H          H       0.91441   0.70633   0.87794   0.10479
H          H       0.20193   0.17436   0.49134   0.12626
H          H       0.82153   0.02522   0.51022   0.12412
H          H       0.97191   0.80129   0.46717   0.12557
H          H       0.13052   0.89158   0.90533   0.10134
H          H       0.10200   0.23279   0.91600   0.10031
H          H       0.76929   0.87236   0.91529   0.10365
H          H       0.13033   0.02500   0.81505   0.04097
H          H       0.98774   0.10733   0.62604   0.03916
H          H       0.89320   0.86704   0.82301   0.04851
H          H       0.32571   0.97709   0.95120   0.09312
H          H       0.01957   0.34713   0.93664   0.09206
H          H       0.65481   0.67505   0.97768   0.09197
H          H       0.27364   0.88261   0.88306   0.09723
H          H       0.11298   0.38677   0.86433   0.09730
H          H       0.61534   0.72858   0.91155   0.09550
H          H       0.17450   0.83631   0.86488   0.09477
H          H       0.15765   0.33186   0.86085   0.09392
H          H       0.67047   0.82874   0.88617   0.09504
H          H       0.18208   0.98682   0.97282   0.08101
H          H       0.00763   0.19172   0.98375   0.07963
H          H       0.80998   0.81929   0.97982   0.07999
H          H       0.04281   0.12845   0.77575   0.34328
H          H       0.87537   0.91685   0.72378   0.34052
H          H       0.08048   0.95595   0.80131   0.34047
H          H       0.36968   0.22729   0.76944   0.11058
H          H       0.77229   0.13514   0.77466   0.10808
H          H       0.86254   0.63570   0.75955   0.10985
H          H       0.45385   0.13264   0.02801   0.12882
H          H       0.86366   0.32037   0.01877   0.12217
H          H       0.68266   0.54456   0.03667   0.12980
H          H       0.46718   0.26884   0.76090   0.12131
H          H       0.73004   0.19063   0.76246   0.11672
H          H       0.80699   0.53669   0.74600   0.12337
H          H       0.53914   0.31030   0.91915   0.09920
H          H       0.69036   0.22373   0.92215   0.09084
H          H       0.77571   0.46270   0.90351   0.10468
H          H       0.53964   0.20972   0.42232   0.27615
H          H       0.78471   0.32707   0.42337   0.27479
H          H       0.64980   0.43438   0.42880   0.29589
H          H       0.39511   0.04158   0.53433   0.11277
H          H       0.95177   0.35502   0.53451   0.11009
H          H       0.64644   0.60189   0.55535   0.11123
H          H       0.34239   0.01866   0.69479   0.12750
H          H       0.97541   0.32713   0.69140   0.12670
H          H       0.67625   0.65587   0.71126   0.12686
H          H       0.39969   0.08385   0.71430   0.10964
H          H       0.91039   0.31814   0.71595   0.11226
H          H       0.68368   0.59833   0.72980   0.11215
C          C       0.19480   0.10198   0.08830   0.20094
C          C       0.89573   0.09242   0.10544   0.20372
C          C       0.90908   0.80875   0.08904   0.19836
C          C       0.21763   0.06936   0.10223  -0.22337
C          C       0.92760   0.14865   0.11387  -0.22664
C          C       0.85369   0.78417   0.11077  -0.22273
C          C       0.26826   0.08452   0.02936   0.01494
C          C       0.91285   0.18267   0.03313   0.01420
C          C       0.81895   0.73335   0.03729   0.01541
C          C       0.29686   0.13727   0.45645   0.03425
C          C       0.86009   0.15816   0.45559   0.03140
C          C       0.84038   0.70276   0.45207   0.03756
C          C       0.27281   0.16901   0.44393  -0.12868
C          C       0.82863   0.10159   0.44871  -0.12682
C          C       0.89611   0.72828   0.43186  -0.12961
C          C       0.22413   0.15192   0.00326  -0.14805
C          C       0.84678   0.06968   0.01926  -0.14331
C          C       0.93031   0.78081  -0.00377  -0.14667
C          C       0.29009   0.04902   0.02070   0.04110
C          C       0.94766   0.24038   0.02042   0.04532
C          C       0.76183   0.71053   0.03388   0.03631
C          C       0.05802   0.02728   0.27319  -0.21204
C          C       0.97808   0.03652   0.25002  -0.21056
C          C       0.96854   0.94629   0.27394  -0.21374
C          C       0.17178   0.91084   0.42791  -0.09100
C          C       0.08366   0.26130   0.42615  -0.09049
C          C       0.74096   0.82796   0.43586  -0.08900
C          C       0.03392   0.05920   0.26431   0.29063
C          C       0.94616   0.97969   0.26281   0.29173
C          C       0.02437   0.97079   0.28082   0.29110
C          C       0.11524   0.04919   0.24991   0.11098
C          C       0.95814   0.07068   0.19245   0.08363
C          C       0.93331   0.88840   0.24812   0.10407
C          C       0.25824   0.99248   0.48676   0.03630
C          C       0.00224   0.26618   0.48427   0.03830
C          C       0.73491   0.74072   0.49416   0.03607
C          C       0.28148   0.95952   0.45400  -0.15506
C          C       0.03422   0.32242   0.44841  -0.15679
C          C       0.67882   0.71706   0.47325  -0.15510
C          C       0.25114   0.90498   0.41493  -0.08595
C          C       0.08822   0.34674   0.40832  -0.08894
C          C       0.65523   0.74764   0.44162  -0.08818
C          C       0.19573   0.87934   0.40494  -0.10412
C          C       0.11421   0.31693   0.40020  -0.10791
C          C       0.68558   0.80368   0.42652  -0.10464
C          C       0.20177   0.96536   0.46720  -0.13923
C          C       0.02970   0.23666   0.46691  -0.14180
C          C       0.76480   0.79773   0.46833  -0.14016
C          C       0.35205   0.15737   0.40754  -0.03049
C          C       0.83993   0.19277   0.40586  -0.02682
C          C       0.80524   0.64657   0.40882  -0.02890
C          C       0.38453   0.20764   0.32800  -0.09738
C          C       0.79050   0.17328   0.32613  -0.09816
C          C       0.82282   0.61360   0.32879  -0.10223
C          C       0.37661   0.12846   0.46503   0.15045
C          C       0.86750   0.24751   0.46295   0.15566
C          C       0.75152   0.62142   0.47132   0.14228
C          C       0.43256   0.15372   0.46253  -0.30033
C          C       0.84147   0.27770   0.46094  -0.29653
C          C       0.72022   0.56481   0.47061  -0.29124
C          C       0.46369   0.20605   0.39893   0.22201
C          C       0.78990   0.25481   0.39717   0.22316
C          C       0.74067   0.53276   0.40616   0.23018
C          C       0.43957   0.23226   0.32297  -0.21669
C          C       0.76523   0.20316   0.32132  -0.21066
C          C       0.79181   0.55791   0.32677  -0.20629
C          C       0.55286   0.28419   0.41439   0.10947
C          C       0.71154   0.26508   0.41013   0.12631
C          C       0.72927   0.44556   0.42177   0.12096
C          C       0.60767   0.30622   0.42221  -0.23489
C          C       0.68902   0.29786   0.41987  -0.25760
C          C       0.69697   0.38857   0.42531  -0.25347
C          C       0.63121   0.27162   0.42272   0.36166
C          C       0.72268   0.35625   0.42618   0.35728
C          C       0.64103   0.36373   0.42659   0.32764
C          C       0.37193   0.05159   0.12823  -0.29163
C          C       0.94460   0.32238   0.11877  -0.28859
C          C       0.68145   0.62593   0.14005  -0.28895
C          C       0.19346   0.10184   0.59646   0.20038
C          C       0.89466   0.09177   0.60297   0.20621
C          C       0.90758   0.80820   0.58291   0.19621
C          C       0.21703   0.06986   0.61022  -0.22437
C          C       0.92645   0.14803   0.61108  -0.22739
C          C       0.85215   0.78360   0.60201  -0.22052
C          C       0.26696   0.08494   0.53202   0.01597
C          C       0.91144   0.18200   0.53080   0.01709
C          C       0.81774   0.73271   0.52824   0.01405
C          C       0.29924   0.13736   0.95814   0.03485
C          C       0.86135   0.15912   0.95919   0.03400
C          C       0.84136   0.70357   0.95853   0.03792
C          C       0.27592   0.16980   0.94622  -0.12962
C          C       0.82976   0.10253   0.95140  -0.12749
C          C       0.89707   0.72846   0.93956  -0.13069
C          C       0.22159   0.15109   0.50668  -0.14617
C          C       0.84563   0.06884   0.51730  -0.14444
C          C       0.92908   0.78061   0.48931  -0.14738
C          C       0.28909   0.04969   0.52182   0.04084
C          C       0.94564   0.23984   0.52019   0.04745
C          C       0.76062   0.70976   0.52429   0.04507
C          C       0.05622   0.02544   0.77518  -0.20805
C          C       0.97639   0.03487   0.74593  -0.20977
C          C       0.96655   0.94475   0.77558  -0.21470
C          C       0.17331   0.91001   0.92103  -0.08867
C          C       0.08427   0.25832   0.92523  -0.09269
C          C       0.74379   0.82916   0.93451  -0.08945
C          C       0.03210   0.05738   0.76173   0.28992
C          C       0.94435   0.97804   0.75733   0.29030
C          C       0.02222   0.96895   0.78652   0.29123
C          C       0.11315   0.04687   0.75165   0.11034
C          C       0.95689   0.06919   0.68560   0.08392
C          C       0.93149   0.88663   0.74953   0.10272
C          C       0.25929   0.99192   0.98313   0.03698
C          C       0.00408   0.26560   0.98188   0.03860
C          C       0.73666   0.74173  -0.00073   0.03895
C          C       0.28296   0.95942   0.94902  -0.15649
C          C       0.03668   0.32133   0.94013  -0.15460
C          C       0.68088   0.71825   0.97198  -0.15664
C          C       0.25309   0.90497   0.90819  -0.08696
C          C       0.09041   0.34426   0.89748  -0.08750
C          C       0.65799   0.74897   0.93259  -0.08614
C          C       0.19767   0.87894   0.89698  -0.10568
C          C       0.11551   0.31358   0.89334  -0.10525
C          C       0.68868   0.80496   0.91663  -0.10540
C          C       0.20284   0.96443   0.96230  -0.14100
C          C       0.03048   0.23501   0.96714  -0.14081
C          C       0.76697   0.79880   0.97431  -0.14345
C          C       0.35459   0.15694   0.91185  -0.03094
C          C       0.84160   0.19411   0.91085  -0.02763
C          C       0.80600   0.64783   0.91095  -0.03079
C          C       0.38772   0.20674   0.83049  -0.10000
C          C       0.79217   0.17536   0.83164  -0.10211
C          C       0.82353   0.61595   0.82334  -0.09769
C          C       0.37849   0.12754   0.97107   0.14882
C          C       0.86988   0.24886   0.96745   0.14183
C          C       0.75239   0.62221   0.97517   0.15237
C          C       0.43450   0.15248   0.97163  -0.30052
C          C       0.84465   0.27974   0.96590  -0.28872
C          C       0.72184   0.56543   0.97474  -0.29937
C          C       0.46637   0.20480   0.90780   0.22359
C          C       0.79291   0.25793   0.90374   0.22356
C          C       0.74306   0.53484   0.90362   0.22697
C          C       0.44273   0.23080   0.82739  -0.21450
C          C       0.76785   0.20612   0.82696  -0.20223
C          C       0.79298   0.56025   0.81800  -0.21347
C          C       0.55542   0.28353   0.92351   0.11575
C          C       0.71684   0.26745   0.92014   0.12046
C          C       0.73275   0.44532   0.91411   0.11756
C          C       0.61028   0.30651   0.92965  -0.25352
C          C       0.69225   0.29942   0.92436  -0.25613
C          C       0.69998   0.38961   0.92450  -0.23825
C          C       0.63447   0.27276   0.92959   0.36006
C          C       0.72368   0.35620   0.92424   0.33133
C          C       0.64215   0.36514   0.93522   0.36004
C          C       0.37218   0.05356   0.62184  -0.28967
C          C       0.94056   0.32066   0.62099  -0.28340
C          C       0.68121   0.62573   0.63772  -0.28864
N          N       0.14251   0.08665   0.13804  -0.26701
N          N       0.90849   0.05679   0.18137  -0.25501
N          N       0.94573   0.86149   0.13943  -0.26635
N          N       0.51903   0.23095   0.41188  -0.22734
N          N       0.76413   0.28490   0.40962  -0.22381
N          N       0.70821   0.47682   0.41954  -0.31549
N          N       0.34643   0.07529   0.03027   0.00010
N          N       0.92169   0.27087   0.02503   0.00309
N          N       0.73163   0.65333   0.04027  -0.00078
N          N       0.14158   0.08698   0.64943  -0.27397
N          N       0.90741   0.05630   0.67996  -0.25131
N          N       0.94367   0.86098   0.63484  -0.26299
N          N       0.52177   0.23011   0.92370  -0.23333
N          N       0.76905   0.28973   0.91611  -0.30714
N          N       0.71319   0.47868   0.91817  -0.22461
N          N       0.34546   0.07640   0.52628   0.00160
N          N       0.91894   0.26980   0.52374  -0.02074
N          N       0.73073   0.65284   0.53445   0.00293
O          O       0.06680   0.11356   0.27346  -0.40277
O          O       0.89258   0.95754   0.24956  -0.39235
O          O       0.04462   0.93734   0.29190  -0.40136
O          O       0.60192   0.22066   0.42502  -0.47160
O          O       0.77309   0.37894   0.43221  -0.47361
O          O       0.61791   0.39363   0.43219  -0.40708
O          O       0.06485   0.11180   0.76620  -0.40103
O          O       0.89108   0.95582   0.73363  -0.39411
O          O       0.04175   0.93509   0.80502  -0.40161
O          O       0.60604   0.22172   0.93367  -0.47138
O          O       0.77639   0.37998   0.92480  -0.40587
O          O       0.62041   0.39394   0.94759  -0.47588

