data_crystal

_audit_creation_method 'AiiDA-DDEC plugin'

_cell_length_a        42.13344
_cell_length_b        43.05888
_cell_length_c         8.39532

_cell_angle_alpha     91.84724
_cell_angle_beta     86.27189
_cell_angle_gamma     118.78454

_symmetry_space_group_name_Hall 'P 1'
_symmetry_space_group_name_H-M  'P 1'

loop_
_symmetry_equiv_pos_as_xyz
 'x,y,z'

loop_
_atom_site_label
_atom_site_type_symbol
_atom_site_fract_x
_atom_site_fract_y
_atom_site_fract_z
_atom_site_charge
H          H       0.50791   0.95706   0.41074   0.11177
H          H       0.49374   0.04691   0.11586   0.11481
H          H       0.44873   0.95538   0.41894   0.11133
H          H       0.55304   0.04837   0.10602   0.11376
H          H       0.52002   0.94016   0.12721   0.10899
H          H       0.47407   0.06078   0.42336   0.10798
H          H       0.52073   0.88378   0.13318   0.11170
H          H       0.47110   0.11613   0.41279   0.11132
H          H       0.62133   0.93455   0.36702   0.12150
H          H       0.38475   0.06757   0.09037   0.12095
H          H       0.62045   0.99173   0.36238   0.11470
H          H       0.38736   0.01124   0.10574   0.10773
H          H       0.53054   0.84001   0.13384   0.06334
H          H       0.46982   0.16155   0.34716   0.06297
H          H       0.36845   0.98788   0.40774   0.11625
H          H       0.63087   0.01664   0.08113   0.11356
H          H       0.31112   0.93058   0.41549   0.12221
H          H       0.68822   0.07362   0.07321   0.12302
H          H       0.36530   0.88163   0.14445   0.11083
H          H       0.63792   0.11960   0.39089   0.11136
H          H       0.42220   0.93793   0.14168   0.10982
H          H       0.58102   0.06349   0.39577   0.10902
H          H       0.30925   0.84517   0.09418   0.06598
H          H       0.69327   0.15914   0.41192   0.06462
H          H       0.44768   0.49311   0.09809   0.11537
H          H       0.55163   0.50839   0.39713   0.11436
H          H       0.50212   0.55161   0.10730   0.11405
H          H       0.49704   0.45027   0.39128   0.11328
H          H       0.42015   0.47792   0.40887   0.10938
H          H       0.58060   0.52321   0.09529   0.10994
H          H       0.36124   0.47831   0.42374   0.12194
H          H       0.63946   0.52311   0.09134   0.12188
H          H       0.31741   0.38737   0.11426   0.11357
H          H       0.68115   0.61463   0.39778   0.11093
H          H       0.37536   0.38687   0.10135   0.10966
H          H       0.62303   0.61492   0.39954   0.11023
H          H       0.27234   0.39388   0.13718   0.06640
H          H       0.72805   0.60922   0.37499   0.06636
H          H       0.21616   0.48100   0.36508   0.10594
H          H       0.78478   0.52267   0.14323   0.10659
H          H       0.20922   0.37283   0.10438   0.10624
H          H       0.79196   0.63099   0.40270   0.10496
H          H       0.60967   0.63076   0.11907   0.11301
H          H       0.38826   0.37037   0.37047   0.11256
H          H       0.60242   0.68436   0.12162   0.10801
H          H       0.39484   0.31640   0.37094   0.10866
H          H       0.50253   0.62999   0.40576   0.12482
H          H       0.49881   0.37194   0.11844   0.12466
H          H       0.51004   0.57644   0.40599   0.11210
H          H       0.49146   0.42547   0.10935   0.11316
H          H       0.59848   0.72694   0.31229   0.06431
H          H       0.40081   0.27453   0.18602   0.06181
H          H       0.50877   0.77767   0.11197   0.10607
H          H       0.48961   0.22249   0.38476   0.10525
H          H       0.61705   0.78854   0.36477   0.10634
H          H       0.38231   0.21324   0.12961   0.10429
H          H       0.05065   0.55189   0.09212   0.11445
H          H       0.95118   0.45173   0.39398   0.11439
H          H       0.04569   0.49243   0.07166   0.11418
H          H       0.95606   0.51082   0.41348   0.11200
H          H       0.06483   0.57806   0.40782   0.10726
H          H       0.93427   0.42708   0.11024   0.11285
H          H       0.12645   0.62974   0.38791   0.12586
H          H       0.87310   0.37495   0.13646   0.12377
H          H       0.08804   0.68301   0.09318   0.11130
H          H       0.91737   0.31757   0.36462   0.10984
H          H       0.02690   0.63090   0.10850   0.11021
H          H       0.97812   0.37036   0.34692   0.11839
H          H       0.13048   0.72396   0.31902   0.06427
H          H       0.87201   0.27765   0.17314   0.06278
H          H       0.20974   0.72881   0.06296   0.11601
H          H       0.79265   0.27576   0.41754   0.11635
H          H       0.23403   0.83549   0.39204   0.11430
H          H       0.76860   0.16473   0.12562   0.11589
H          H       0.00702   0.38504   0.05392   0.11112
H          H       0.99838   0.62313   0.40303   0.11486
H          H       0.06326   0.37951   0.04684   0.12134
H          H       0.94240   0.62905   0.41680   0.12036
H          H       0.11134   0.46935   0.36096   0.11240
H          H       0.88744   0.53103   0.15953   0.11146
H          H       0.05650   0.47518   0.36455   0.10850
H          H       0.94197   0.52481   0.14897   0.10940
H          H       0.15470   0.46169   0.32627   0.06427
H          H       0.84672   0.54304   0.16913   0.06239
H          H       0.27065   0.47195   0.34470   0.11285
H          H       0.72978   0.53064   0.17240   0.11453
H          H       0.15455   0.38154   0.12705   0.11365
H          H       0.84696   0.62297   0.37373   0.11350
H          H       0.51597   0.72402   0.14753   0.11751
H          H       0.48243   0.27627   0.35695   0.11628
H          H       0.60913   0.84195   0.33570   0.11321
H          H       0.38997   0.15957   0.15325   0.11453
H          H       0.17335   0.78141   0.41465   0.10432
H          H       0.82941   0.21852   0.09523   0.10434
H          H       0.26947   0.78365   0.03250   0.10288
H          H       0.73266   0.22132   0.45625   0.10395
H          H       0.50540   0.95354   0.90721   0.11431
H          H       0.49252   0.04432   0.61358   0.11293
H          H       0.44661   0.95306   0.91875   0.11241
H          H       0.55109   0.04498   0.60275   0.11205
H          H       0.52198   0.93843   0.59980   0.10761
H          H       0.47865   0.06121   0.88787   0.11066
H          H       0.52323   0.88219   0.60520   0.11151
H          H       0.47778   0.11725   0.86789   0.11105
H          H       0.61397   0.92953   0.90496   0.12219
H          H       0.37795   0.06426   0.62883   0.12254
H          H       0.61367   0.98691   0.89243   0.11103
H          H       0.37905   0.00739   0.64697   0.11500
H          H       0.53541   0.83944   0.60380   0.06436
H          H       0.46617   0.15867   0.87270   0.06461
H          H       0.36691   0.98259   0.92714   0.11446
H          H       0.62906   0.01075   0.59130   0.11503
H          H       0.31042   0.92495   0.92645   0.12249
H          H       0.68721   0.06722   0.57936   0.12238
H          H       0.36464   0.88186   0.61483   0.11103
H          H       0.63712   0.11714   0.87242   0.11037
H          H       0.42092   0.93813   0.62342   0.10887
H          H       0.57952   0.06201   0.87802   0.10888
H          H       0.31303   0.83665   0.62627   0.06640
H          H       0.69026   0.15752   0.88135   0.06382
H          H       0.44794   0.49241   0.60135   0.11336
H          H       0.55169   0.50501   0.89378   0.11474
H          H       0.50289   0.55025   0.61115   0.11359
H          H       0.49672   0.44716   0.88386   0.11512
H          H       0.42003   0.47909   0.88736   0.11075
H          H       0.58078   0.52227   0.59093   0.10978
H          H       0.36041   0.47764   0.90677   0.12210
H          H       0.64049   0.52350   0.57510   0.12280
H          H       0.31459   0.38059   0.63820   0.11105
H          H       0.68214   0.61324   0.89168   0.11203
H          H       0.37364   0.38173   0.61998   0.11271
H          H       0.62293   0.61178   0.90784   0.10880
H          H       0.27743   0.40216   0.58605   0.06612
H          H       0.72116   0.59507   0.92009   0.06726
H          H       0.20837   0.46809   0.92320   0.10470
H          H       0.79034   0.53226   0.56012   0.10344
H          H       0.21416   0.38083   0.53741   0.10382
H          H       0.78445   0.61529   0.97131   0.10436
H          H       0.61109   0.62868   0.63042   0.11378
H          H       0.39218   0.37156   0.89916   0.10982
H          H       0.60429   0.68257   0.62904   0.10945
H          H       0.39959   0.31798   0.90526   0.10842
H          H       0.50130   0.62737   0.89007   0.12448
H          H       0.49557   0.36880   0.59378   0.12562
H          H       0.50883   0.57394   0.89736   0.11058
H          H       0.48737   0.42181   0.58292   0.10931
H          H       0.59734   0.72437   0.82907   0.06459
H          H       0.40202   0.27412   0.69087   0.06443
H          H       0.51488   0.77714   0.57058   0.10408
H          H       0.48878   0.22071   0.89827   0.10469
H          H       0.61178   0.78483   0.90286   0.10431
H          H       0.38450   0.21324   0.62285   0.10483
H          H       0.04715   0.54765   0.58909   0.11201
H          H       0.94861   0.44924   0.90181   0.11315
H          H       0.04155   0.48817   0.57152   0.11270
H          H       0.95410   0.50885   0.91914   0.11478
H          H       0.06656   0.57262   0.86665   0.11237
H          H       0.93364   0.42437   0.60391   0.11055
H          H       0.12731   0.62542   0.84669   0.12368
H          H       0.87240   0.37192   0.61628   0.12456
H          H       0.08236   0.68358   0.63050   0.10811
H          H       0.91338   0.31459   0.86877   0.10860
H          H       0.02199   0.63049   0.64444   0.11511
H          H       0.97407   0.36727   0.86138   0.11345
H          H       0.12815   0.72490   0.79816   0.05953
H          H       0.87161   0.27452   0.67807   0.06322
H          H       0.21144   0.72008   0.63508   0.11568
H          H       0.78904   0.27381   0.88306   0.11696
H          H       0.23128   0.83884   0.81804   0.11513
H          H       0.76996   0.15982   0.63620   0.11510
H          H       0.00286   0.37965   0.57525   0.11295
H          H       0.99224   0.61419   0.94324   0.10944
H          H       0.05950   0.37509   0.55493   0.12136
H          H       0.93562   0.61886   0.95683   0.12108
H          H       0.11256   0.47068   0.83010   0.11139
H          H       0.88928   0.53277   0.62260   0.11125
H          H       0.05661   0.47499   0.85173   0.10816
H          H       0.94521   0.52818   0.61073   0.10638
H          H       0.14608   0.44778   0.87315   0.06509
H          H       0.85257   0.55205   0.60789   0.06524
H          H       0.26443   0.46228   0.88922   0.11066
H          H       0.73407   0.53752   0.60502   0.10988
H          H       0.15792   0.38639   0.57214   0.11353
H          H       0.84064   0.60971   0.92761   0.11096
H          H       0.52158   0.72357   0.61181   0.11551
H          H       0.48257   0.27500   0.86673   0.11916
H          H       0.60388   0.83802   0.86830   0.11511
H          H       0.39204   0.15945   0.64564   0.11692
H          H       0.16925   0.78636   0.84185   0.10468
H          H       0.83057   0.21397   0.60775   0.10599
H          H       0.27310   0.77287   0.60444   0.10642
H          H       0.72897   0.21919   0.91959   0.10560
C          C       0.53490   0.00244   0.25501   0.15675
C          C       0.46657   0.00078   0.26682   0.16343
C          C       0.50484   0.97648   0.34351  -0.16220
C          C       0.49679   0.02720   0.18090  -0.16709
C          C       0.47140   0.97558   0.34868  -0.16798
C          C       0.53023   0.02798   0.17509  -0.16494
C          C       0.56989   0.97022   0.24655   0.17198
C          C       0.43104   0.03212   0.26401   0.16265
C          C       0.54216   0.93903   0.18141  -0.17555
C          C       0.45475   0.06236   0.34891  -0.16804
C          C       0.54267   0.90705   0.18549  -0.15397
C          C       0.45326   0.09379   0.34063  -0.15655
C          C       0.57139   0.90478   0.25251   0.18568
C          C       0.42784   0.09625   0.24709   0.18849
C          C       0.59924   0.93620   0.31477  -0.13226
C          C       0.40399   0.06566   0.16427  -0.13402
C          C       0.59865   0.96812   0.31235  -0.18218
C          C       0.40566   0.03437   0.17180  -0.17339
C          C       0.55353   0.84428   0.20360   0.05825
C          C       0.44560   0.15675   0.28561   0.06089
C          C       0.39963   0.96715   0.27388   0.16942
C          C       0.60172   0.03557   0.24091   0.16429
C          C       0.36777   0.96457   0.35093  -0.17645
C          C       0.63240   0.03911   0.14925  -0.17375
C          C       0.33562   0.93272   0.35388  -0.13720
C          C       0.66466   0.07086   0.14570  -0.13591
C          C       0.33348   0.90203   0.27916   0.18848
C          C       0.66798   0.10065   0.23316   0.19038
C          C       0.36552   0.90466   0.20282  -0.15849
C          C       0.63688   0.09729   0.32239  -0.15705
C          C       0.39783   0.93653   0.20052  -0.17807
C          C       0.60454   0.06546   0.32598  -0.17175
C          C       0.29112   0.84493   0.19518   0.06741
C          C       0.71110   0.15810   0.31253   0.06832
C          C       0.53124   0.53445   0.25170   0.15853
C          C       0.46823   0.46708   0.24311   0.15730
C          C       0.47038   0.49639   0.16445  -0.15918
C          C       0.52904   0.50513   0.33025  -0.16110
C          C       0.50115   0.52942   0.16939  -0.16438
C          C       0.49818   0.47222   0.32658  -0.16291
C          C       0.40213   0.43248   0.25367   0.17066
C          C       0.59742   0.56896   0.24838   0.16881
C          C       0.39754   0.45807   0.34525  -0.17787
C          C       0.60263   0.54314   0.16158  -0.17657
C          C       0.36476   0.45845   0.35313  -0.13479
C          C       0.63547   0.54296   0.15971  -0.13573
C          C       0.33498   0.43322   0.27089   0.18588
C          C       0.66484   0.56861   0.24299   0.18352
C          C       0.33942   0.40702   0.18210  -0.15698
C          C       0.65968   0.59487   0.32784  -0.15272
C          C       0.37230   0.40676   0.17334  -0.17079
C          C       0.62674   0.59502   0.33045  -0.17238
C          C       0.27492   0.41640   0.21135   0.05571
C          C       0.72533   0.58631   0.30347   0.05648
C          C       0.24344   0.42191   0.22420   0.06053
C          C       0.75712   0.58118   0.28916   0.05889
C          C       0.24513   0.45259   0.29710  -0.10497
C          C       0.75549   0.55047   0.21678  -0.10660
C          C       0.21480   0.45732   0.30830  -0.13036
C          C       0.78615   0.54628   0.20083  -0.12983
C          C       0.18176   0.43163   0.24763   0.06071
C          C       0.81956   0.57240   0.25688   0.06147
C          C       0.18004   0.40093   0.17479  -0.10579
C          C       0.82122   0.60309   0.32965  -0.10703
C          C       0.21049   0.39633   0.16262  -0.12978
C          C       0.79051   0.60730   0.34554  -0.12925
C          C       0.56040   0.59956   0.26251   0.16488
C          C       0.43913   0.40193   0.23766   0.16875
C          C       0.58651   0.63065   0.18443  -0.17330
C          C       0.41200   0.37057   0.31063  -0.17595
C          C       0.58265   0.66100   0.18775  -0.16920
C          C       0.41561   0.34008   0.30983  -0.16876
C          C       0.55203   0.66115   0.26521   0.19321
C          C       0.44704   0.34004   0.24143   0.18996
C          C       0.52590   0.62993   0.34295  -0.14349
C          C       0.47446   0.37170   0.17164  -0.14247
C          C       0.53041   0.60010   0.34426  -0.17309
C          C       0.47015   0.40158   0.16606  -0.17660
C          C       0.57157   0.72181   0.27850   0.05931
C          C       0.42739   0.27940   0.22367   0.05840
C          C       0.56675   0.75276   0.25876   0.05536
C          C       0.43208   0.24832   0.24118   0.05589
C          C       0.53602   0.74995   0.18845  -0.10791
C          C       0.46250   0.25066   0.31256  -0.10718
C          C       0.53217   0.77985   0.16974  -0.13094
C          C       0.46637   0.22066   0.32697  -0.13093
C          C       0.55844   0.81337   0.22317   0.05836
C          C       0.44032   0.18749   0.26941   0.05820
C          C       0.58913   0.81609   0.29397  -0.10880
C          C       0.40984   0.18516   0.19812  -0.10798
C          C       0.59334   0.78633   0.30964  -0.13015
C          C       0.40576   0.21508   0.18558  -0.13106
C          C       0.00366   0.53590   0.25379   0.16021
C          C       0.99807   0.46751   0.23114   0.15650
C          C       0.02894   0.52998   0.15897  -0.16574
C          C       0.97292   0.47350   0.32650  -0.16478
C          C       0.02613   0.49647   0.14763  -0.16206
C          C       0.97570   0.50694   0.33758  -0.16555
C          C       0.04134   0.60057   0.25868   0.15388
C          C       0.96078   0.40261   0.22632   0.16363
C          C       0.06992   0.60088   0.33754  -0.16353
C          C       0.93061   0.40315   0.16643  -0.17813
C          C       0.10463   0.62968   0.32533  -0.15325
C          C       0.89623   0.37397   0.18146  -0.14714
C          C       0.11166   0.66007   0.23947   0.19669
C          C       0.89087   0.34222   0.24934   0.19112
C          C       0.08284   0.66021   0.16437  -0.17525
C          C       0.92122   0.34138   0.30576  -0.16978
C          C       0.04847   0.63069   0.17155  -0.16429
C          C       0.95537   0.37119   0.29726  -0.17430
C          C       0.15253   0.71976   0.26359   0.06965
C          C       0.85016   0.28217   0.22853   0.06278
C          C       0.19470   0.78190   0.33262  -0.13081
C          C       0.80801   0.21907   0.17323  -0.13020
C          C       0.18791   0.75132   0.24256   0.05503
C          C       0.81478   0.25084   0.25292   0.05537
C          C       0.21538   0.75215   0.13518  -0.10853
C          C       0.78706   0.25139   0.35404  -0.10790
C          C       0.24869   0.78280   0.11909  -0.12615
C          C       0.75369   0.22101   0.37470  -0.12786
C          C       0.25588   0.81307   0.21258   0.05923
C          C       0.74660   0.18948   0.29174   0.05798
C          C       0.22831   0.81208   0.32041  -0.11116
C          C       0.77433   0.18904   0.18984  -0.11085
C          C       0.02748   0.43022   0.21158   0.16789
C          C       0.97454   0.57362   0.27441   0.17506
C          C       0.02980   0.40320   0.12196  -0.17618
C          C       0.97406   0.60308   0.34960  -0.18416
C          C       0.06108   0.39998   0.11833  -0.13651
C          C       0.94283   0.60649   0.35679  -0.13554
C          C       0.09136   0.42345   0.20296   0.18431
C          C       0.91065   0.58091   0.29001   0.18178
C          C       0.08902   0.45084   0.29117  -0.15426
C          C       0.91126   0.55129   0.21573  -0.15339
C          C       0.05779   0.45405   0.29528  -0.17209
C          C       0.94235   0.54777   0.20807  -0.17594
C          C       0.15081   0.43793   0.25876   0.05651
C          C       0.85082   0.56652   0.23965   0.05399
C          C       0.53295  -0.00063   0.75393   0.16137
C          C       0.46494   0.99861   0.76758   0.15680
C          C       0.50271   0.97344   0.84199  -0.16426
C          C       0.49520   0.02458   0.68005  -0.16433
C          C       0.46950   0.97315   0.84878  -0.16480
C          C       0.52841   0.02496   0.67376  -0.16586
C          C       0.56763   0.96685   0.74667   0.16704
C          C       0.42924   0.03005   0.76640   0.17035
C          C       0.54230   0.93666   0.66637  -0.17108
C          C       0.45669   0.06173   0.82916  -0.17315
C          C       0.54297   0.90470   0.67081  -0.15613
C          C       0.45605   0.09350   0.81769  -0.15789
C          C       0.56913   0.90158   0.75618   0.18980
C          C       0.42750   0.09509   0.74566   0.18775
C          C       0.59435   0.93199   0.83575  -0.13406
C          C       0.39987   0.06322   0.68592  -0.13337
C          C       0.59385   0.96393   0.83035  -0.17405
C          C       0.40058   0.03143   0.69569  -0.18221
C          C       0.55448   0.84228   0.69399   0.06516
C          C       0.44482   0.15520   0.79395   0.05994
C          C       0.39827   0.96477   0.77530   0.16851
C          C       0.59995   0.03195   0.73681   0.17072
C          C       0.36662   0.96043   0.86081  -0.17577
C          C       0.63090   0.03410   0.65247  -0.17797
C          C       0.33478   0.92836   0.85867  -0.13382
C          C       0.66355   0.06552   0.64738  -0.13520
C          C       0.33278   0.89918   0.77030   0.18781
C          C       0.66717   0.09629   0.72693   0.18719
C          C       0.36478   0.90342   0.68643  -0.15465
C          C       0.63586   0.09417   0.80917  -0.15627
C          C       0.39671   0.93547   0.68923  -0.17083
C          C       0.60310   0.06281   0.81363  -0.17484
C          C       0.29230   0.84000   0.69968   0.05997
C          C       0.70966   0.15475   0.79582   0.05958
C          C       0.53146   0.53223   0.75446   0.15903
C          C       0.46793   0.46533   0.74274   0.15701
C          C       0.47054   0.49510   0.66662  -0.16325
C          C       0.52904   0.50239   0.82909  -0.16264
C          C       0.50158   0.52783   0.67249  -0.16677
C          C       0.49797   0.46966   0.82344  -0.16626
C          C       0.40148   0.43071   0.75078   0.16930
C          C       0.59758   0.56685   0.75113   0.16609
C          C       0.39704   0.45759   0.83217  -0.18071
C          C       0.60290   0.54189   0.65779  -0.17719
C          C       0.36381   0.45704   0.84211  -0.13917
C          C       0.63607   0.54238   0.64936  -0.13842
C          C       0.33338   0.42992   0.77046   0.18828
C          C       0.66539   0.56774   0.73359   0.18815
C          C       0.33758   0.40247   0.69241  -0.16221
C          C       0.66017   0.59317   0.82503  -0.15912
C          C       0.37094   0.40293   0.68240  -0.17493
C          C       0.62682   0.59255   0.83419  -0.17085
C          C       0.27587   0.41766   0.69020   0.06662
C          C       0.72295   0.58027   0.81365   0.06516
C          C       0.24316   0.42130   0.71138   0.05882
C          C       0.75570   0.57693   0.78912   0.05791
C          C       0.24106   0.44602   0.81993  -0.10988
C          C       0.75760   0.55319   0.67418  -0.11067
C          C       0.20970   0.44906   0.83816  -0.13027
C          C       0.78895   0.55036   0.65025  -0.12977
C          C       0.17932   0.42763   0.74879   0.05638
C          C       0.81927   0.57090   0.74109   0.05679
C          C       0.18138   0.40285   0.64054  -0.11149
C          C       0.81728   0.59440   0.85698  -0.11083
C          C       0.21279   0.39988   0.62209  -0.13164
C          C       0.78593   0.59733   0.88062  -0.13033
C          C       0.56058   0.59728   0.76541   0.16465
C          C       0.43898   0.40049   0.73947   0.15873
C          C       0.58745   0.62851   0.69104  -0.17595
C          C       0.41438   0.37072   0.82947  -0.17210
C          C       0.58383   0.65900   0.69193  -0.17058
C          C       0.41836   0.34043   0.83145  -0.17099
C          C       0.55258   0.65908   0.76228   0.19044
C          C       0.44786   0.33936   0.74756   0.19279
C          C       0.52548   0.62762   0.83473  -0.14539
C          C       0.47297   0.36956   0.66045  -0.14787
C          C       0.52991   0.59780   0.83982  -0.17568
C          C       0.46804   0.39906   0.65321  -0.16796
C          C       0.57146   0.71954   0.78287   0.06127
C          C       0.42858   0.27887   0.72801   0.06313
C          C       0.56684   0.75056   0.76045   0.05537
C          C       0.43330   0.24769   0.74276   0.05547
C          C       0.53925   0.74868   0.66805  -0.11077
C          C       0.46302   0.24961   0.81877  -0.10934
C          C       0.53564   0.77863   0.64596  -0.12877
C          C       0.46637   0.21937   0.83523  -0.13108
C          C       0.55884   0.81117   0.71840   0.05659
C          C       0.44082   0.18654   0.77280   0.05874
C          C       0.58629   0.81294   0.81193  -0.11173
C          C       0.41145   0.18480   0.69423  -0.11120
C          C       0.59049   0.78323   0.83059  -0.13181
C          C       0.40753   0.21482   0.68169  -0.13038
C          C       0.00148   0.53301   0.75762   0.15973
C          C       0.99530   0.46439   0.73843   0.15978
C          C       0.02584   0.52633   0.65997  -0.16539
C          C       0.97040   0.47083   0.83376  -0.16478
C          C       0.02275   0.49278   0.65015  -0.16361
C          C       0.97341   0.50444   0.84313  -0.16248
C          C       0.03946   0.59787   0.76071   0.17026
C          C       0.95837   0.39965   0.73143   0.16168
C          C       0.06984   0.59695   0.81621  -0.17914
C          C       0.92917   0.40033   0.66216  -0.17354
C          C       0.10400   0.62641   0.80391  -0.14221
C          C       0.89478   0.37108   0.66998  -0.14474
C          C       0.10924   0.65873   0.74268   0.18635
C          C       0.88854   0.33926   0.74061   0.19151
C          C       0.07880   0.65967   0.68738  -0.16527
C          C       0.91796   0.33838   0.80728  -0.17088
C          C       0.04479   0.62971   0.69383  -0.17459
C          C       0.95205   0.36817   0.80503  -0.16850
C          C       0.15023   0.71916   0.75866   0.05435
C          C       0.84888   0.27896   0.72156   0.05975
C          C       0.19212   0.78344   0.79098  -0.13182
C          C       0.80817   0.21496   0.67577  -0.13040
C          C       0.18642   0.74960   0.74116   0.05810
C          C       0.81355   0.24749   0.74290   0.05498
C          C       0.21617   0.74621   0.67440  -0.10672
C          C       0.78444   0.24871   0.82990  -0.10793
C          C       0.25036   0.77568   0.65800  -0.13011
C          C       0.75112   0.21825   0.84907  -0.12854
C          C       0.25617   0.80936   0.71112   0.05996
C          C       0.74540   0.18588   0.77845   0.05945
C          C       0.22639   0.81273   0.77776  -0.10792
C          C       0.77458   0.18475   0.69114  -0.10864
C          C       0.02519   0.42732   0.71784   0.16626
C          C       0.97284   0.57094   0.77496   0.16266
C          C       0.02666   0.39920   0.63367  -0.18146
C          C       0.96990   0.59675   0.87155  -0.17297
C          C       0.05832   0.39651   0.62260  -0.13842
C          C       0.93836   0.59955   0.87878  -0.13806
C          C       0.08994   0.42150   0.69509   0.18847
C          C       0.90850   0.57679   0.79028   0.19079
C          C       0.08859   0.45016   0.77574  -0.15863
C          C       0.91157   0.55085   0.69348  -0.15651
C          C       0.05694   0.45282   0.78770  -0.17296
C          C       0.94317   0.54816   0.68598  -0.16942
C          C       0.14682   0.43158   0.77026   0.06658
C          C       0.85173   0.56718   0.71469   0.07038
N          N       0.56887   0.00272   0.24607  -0.11996
N          N       0.43241  -0.00015   0.27131  -0.12441
N          N       0.57527   0.87455   0.26590  -0.30096
N          N       0.42323   0.12599   0.22971  -0.29951
N          N       0.29971   0.87143   0.29220  -0.29780
N          N       0.70193   0.13100   0.21872  -0.30212
N          N       0.56322   0.56797   0.25535  -0.12300
N          N       0.43634   0.43346   0.24015  -0.12206
N          N       0.30398   0.43727   0.28396  -0.30343
N          N       0.69609   0.56493   0.23293  -0.30662
N          N       0.54547   0.68990   0.26080  -0.27911
N          N       0.45332   0.31115   0.24709  -0.27911
N          N       0.00628   0.57005   0.26471  -0.12439
N          N       0.99541   0.43335   0.21959  -0.12136
N          N       0.14706   0.68837   0.22507  -0.27275
N          N       0.85571   0.31373   0.26483  -0.27760
N          N       0.12098   0.41708   0.19121  -0.30344
N          N       0.88108   0.58738   0.30444  -0.30567
N          N       0.56681  -0.00048   0.74441  -0.12522
N          N       0.43075   0.99790   0.77380  -0.12089
N          N       0.57248   0.87112   0.77429  -0.29905
N          N       0.42400   0.12538   0.72575  -0.29952
N          N       0.29877   0.86896   0.77553  -0.30340
N          N       0.70163   0.12610   0.71409  -0.30281
N          N       0.56330   0.56569   0.76138  -0.12448
N          N       0.43585   0.43196   0.73869  -0.12407
N          N       0.30166   0.43276   0.78786  -0.30155
N          N       0.69734   0.56547   0.71489  -0.30023
N          N       0.54615   0.68785   0.75387  -0.27697
N          N       0.45438   0.31055   0.75262  -0.27445
N          N       0.00478   0.56744   0.76803  -0.12497
N          N       0.99299   0.43032   0.72993  -0.12175
N          N       0.14444   0.68707   0.73372  -0.28090
N          N       0.85348   0.31057   0.74858  -0.27892
N          N       0.12039   0.41643   0.67540  -0.30126
N          N       0.87779   0.58129   0.81153  -0.30149

