data_crystal

_audit_creation_method 'AiiDA-DDEC plugin'

_cell_length_a        50.73016
_cell_length_b        50.89204
_cell_length_c         8.37379

_cell_angle_alpha     101.11641
_cell_angle_beta     79.10614
_cell_angle_gamma     119.88678

_symmetry_space_group_name_Hall 'P 1'
_symmetry_space_group_name_H-M  'P 1'

loop_
_symmetry_equiv_pos_as_xyz
 'x,y,z'

loop_
_atom_site_label
_atom_site_type_symbol
_atom_site_fract_x
_atom_site_fract_y
_atom_site_fract_z
_atom_site_charge
H          H       0.51604   0.96387   0.34490   0.11083
H          H       0.49586   0.03672   0.14365   0.11325
H          H       0.46776   0.96516   0.44126   0.11791
H          H       0.54416   0.03551   0.04875   0.11135
H          H       0.51754   0.94394   0.02814   0.11082
H          H       0.49439   0.05960   0.44954   0.11589
H          H       0.51308   0.89415   0.04238   0.11191
H          H       0.49240   0.10700   0.45730   0.10957
H          H       0.60106   0.93892   0.22217   0.12430
H          H       0.40249   0.05555   0.29823   0.12339
H          H       0.60631   0.98940   0.19980   0.12186
H          H       0.40402   0.00752   0.29804   0.11293
H          H       0.51804   0.85526   0.54407   0.07585
H          H       0.48135   0.14668   0.94834   0.07641
H          H       0.50518   0.79752   0.53276   0.13382
H          H       0.49716   0.20613   0.95038   0.13411
H          H       0.40455   0.99617   0.58584   0.10802
H          H       0.61251   0.00505   0.93402   0.11903
H          H       0.34051   0.94671   0.14264   0.12549
H          H       0.64217   0.04894   0.37494   0.12108
H          H       0.38415   0.90068   0.21970   0.10949
H          H       0.62198   0.10187   0.24809   0.11102
H          H       0.43367   0.94650   0.18485   0.11065
H          H       0.57508   0.05404   0.29151   0.11494
H          H       0.34711   0.86333   0.31590   0.07510
H          H       0.66042   0.13981   0.17066   0.07653
H          H       0.30588   0.80728   0.25837   0.13490
H          H       0.70079   0.19726   0.21462   0.13554
H          H       0.45275   0.49670   0.38562   0.12111
H          H       0.54983   0.50075   0.11357   0.12316
H          H       0.49990   0.54533   0.39278   0.12158
H          H       0.50292   0.45206   0.10841   0.12366
H          H       0.44051   0.47821   0.08001   0.10436
H          H       0.56315   0.51864   0.40112   0.10612
H          H       0.39305   0.48066   0.06780   0.11947
H          H       0.61133   0.51722   0.40511   0.12275
H          H       0.34259   0.40795   0.37307   0.11305
H          H       0.66047   0.59457   0.13222   0.11162
H          H       0.38925   0.40592   0.38592   0.11103
H          H       0.61273   0.59507   0.12189   0.11459
H          H       0.30542   0.41399   0.34495   0.07838
H          H       0.69662   0.58395   0.11642   0.07586
H          H       0.24755   0.40238   0.36680   0.13576
H          H       0.75502   0.59595   0.08273   0.13149
H          H       0.26262   0.49989   0.08378   0.12660
H          H       0.74447   0.50718   0.42465   0.12725
H          H       0.19320   0.40411   0.35584   0.12937
H          H       0.81017   0.59623   0.09619   0.12355
H          H       0.59214   0.61309   0.39161   0.11383
H          H       0.40652   0.38497   0.12123   0.11593
H          H       0.58783   0.65866   0.38324   0.11298
H          H       0.40785   0.33794   0.13263   0.11205
H          H       0.51157   0.60532   0.10031   0.12294
H          H       0.48821   0.38906   0.38600   0.12308
H          H       0.51621   0.55910   0.10685   0.10609
H          H       0.48610   0.43665   0.38134   0.10673
H          H       0.58655   0.69528   0.30780   0.07618
H          H       0.41541   0.30086   0.14148   0.07809
H          H       0.59849   0.75253   0.33102   0.13649
H          H       0.40144   0.24250   0.13511   0.13594
H          H       0.49652   0.73849   0.09297   0.12927
H          H       0.50017   0.25729   0.41023   0.12813
H          H       0.59827   0.80677   0.31711   0.12913
H          H       0.40048   0.18798   0.16779   0.12776
H          H       0.03993   0.54496   0.42287   0.11299
H          H       0.96609   0.46080   0.06806   0.11516
H          H       0.04047   0.49594   0.36022   0.11511
H          H       0.96504   0.50946   0.13489   0.11384
H          H       0.05434   0.56988   0.13202   0.11316
H          H       0.94914   0.43689   0.34142   0.11184
H          H       0.10389   0.61789   0.14716   0.12375
H          H       0.89999   0.38856   0.32729   0.12360
H          H       0.05590   0.65372   0.01463   0.11209
H          H       0.93618   0.34012   0.45763   0.11271
H          H       0.10224   0.68303   0.06964   0.07946
H          H       0.88842   0.31079   0.41632   0.07875
H          H       0.14412   0.73997   0.16827   0.13142
H          H       0.84559   0.25369   0.32713   0.12892
H          H       0.25160   0.75165   0.23149   0.12993
H          H       0.75465   0.25380   0.23256   0.12982
H          H       0.19796   0.79635   0.20546   0.12574
H          H       0.79173   0.19759   0.30294   0.12419
H          H       0.01195   0.40488   0.27821   0.10874
H          H       0.99449   0.60198   0.23212   0.11219
H          H       0.06184   0.40731   0.28440   0.12271
H          H       0.94467   0.59921   0.21209   0.12302
H          H       0.10774   0.48945   0.04934   0.11236
H          H       0.89708   0.51506   0.42828   0.11320
H          H       0.05851   0.48711   0.04410   0.11305
H          H       0.94605   0.51739   0.44327   0.11105
H          H       0.14842   0.48614   0.07246   0.07841
H          H       0.85821   0.52184   0.42498   0.07655
H          H       0.19830   0.49161   0.60338   0.13641
H          H       0.79459   0.49813   0.86549   0.13578
H          H       0.01264   0.61133   0.51459   0.11409
H          H       0.99398   0.39307   0.00053   0.11409
H          H       0.50171   0.96218   0.87155   0.11235
H          H       0.48312   0.03614   0.66899   0.11206
H          H       0.45442   0.96516   0.97067   0.10887
H          H       0.53059   0.03328   0.56938   0.11683
H          H       0.50562   0.93891   0.55199   0.11550
H          H       0.48098   0.05764   0.98806   0.11090
H          H       0.50923   0.89227   0.54213   0.11010
H          H       0.48340   0.10668   0.98123   0.11123
H          H       0.59641   0.94511   0.73219   0.12200
H          H       0.39590   0.05994   0.79385   0.12498
H          H       0.59339   0.99256   0.73359   0.11098
H          H       0.39235   0.01021   0.81181   0.12494
H          H       0.51468   0.85376   0.06609   0.07931
H          H       0.48518   0.14535   0.44881   0.07534
H          H       0.49784   0.79348   0.06598   0.13573
H          H       0.49930   0.20331   0.44479   0.13376
H          H       0.38725   0.99567   0.08649   0.12057
H          H       0.59252   0.00202   0.42752   0.10666
H          H       0.35456   0.94922   0.62713   0.12340
H          H       0.65957   0.05372   0.88453   0.12525
H          H       0.37801   0.89824   0.78122   0.10994
H          H       0.61345   0.09937   0.77521   0.10925
H          H       0.42412   0.94623   0.72829   0.11340
H          H       0.56469   0.05340   0.82347   0.11122
H          H       0.33276   0.86627   0.78509   0.07312
H          H       0.65950   0.13006   0.75318   0.07394
H          H       0.29371   0.81076   0.71830   0.12949
H          H       0.69936   0.18514   0.80916   0.12633
H          H       0.45000   0.50007   0.88180   0.12406
H          H       0.54663   0.50217   0.61579   0.12198
H          H       0.49764   0.54807   0.89106   0.12400
H          H       0.49897   0.45414   0.60548   0.12177
H          H       0.43446   0.48266   0.60342   0.10805
H          H       0.56023   0.51902   0.90392   0.10629
H          H       0.38479   0.48163   0.60245   0.12402
H          H       0.60837   0.51754   0.91087   0.12240
H          H       0.33869   0.40216   0.85927   0.11185
H          H       0.65803   0.59446   0.63475   0.11252
H          H       0.38759   0.40360   0.86327   0.11591
H          H       0.61059   0.59544   0.62487   0.11399
H          H       0.30020   0.40756   0.85969   0.07884
H          H       0.69664   0.59320   0.69356   0.08062
H          H       0.24005   0.39376   0.88912   0.13527
H          H       0.75497   0.60563   0.67112   0.13575
H          H       0.25298   0.49135   0.61640   0.12952
H          H       0.73997   0.49918   0.85317   0.12919
H          H       0.18513   0.39412   0.87834   0.12687
H          H       0.80972   0.60404   0.67540   0.12919
H          H       0.59078   0.61320   0.90429   0.11239
H          H       0.40884   0.38834   0.58376   0.11069
H          H       0.58987   0.66063   0.89579   0.11142
H          H       0.41186   0.34217   0.59365   0.11504
H          H       0.51500   0.61161   0.60020   0.12341
H          H       0.48317   0.39282   0.91139   0.11945
H          H       0.51636   0.56369   0.60677   0.10755
H          H       0.47942   0.43967   0.90441   0.10546
H          H       0.58605   0.69919   0.86120   0.07618
H          H       0.41416   0.30478   0.64869   0.07790
H          H       0.59775   0.75741   0.88625   0.13367
H          H       0.40182   0.24710   0.62909   0.13569
H          H       0.50477   0.74314   0.56027   0.12665
H          H       0.49875   0.26102   0.91831   0.12669
H          H       0.59759   0.81177   0.86274   0.12472
H          H       0.40071   0.19252   0.65839   0.12747
H          H       0.03545   0.53845   0.91142   0.11444
H          H       0.95864   0.45420   0.57182   0.11413
H          H       0.03537   0.48931   0.84548   0.11244
H          H       0.95907   0.50361   0.63527   0.11360
H          H       0.05133   0.56337   0.64184   0.11128
H          H       0.94485   0.42891   0.85965   0.11287
H          H       0.10009   0.61213   0.65036   0.12375
H          H       0.89534   0.38087   0.85048   0.12469
H          H       0.06157   0.65830   0.53341   0.11265
H          H       0.94518   0.34583   0.97881   0.11124
H          H       0.10647   0.69502   0.53411   0.07878
H          H       0.90162   0.30911   0.97551   0.08041
H          H       0.14853   0.75166   0.60357   0.13734
H          H       0.85995   0.25157   0.90920   0.13683
H          H       0.24115   0.75447   0.68988   0.12579
H          H       0.75259   0.24054   0.83038   0.12239
H          H       0.20268   0.80741   0.62793   0.13229
H          H       0.80595   0.19582   0.88260   0.13020
H          H       0.00232   0.39502   0.75529   0.11692
H          H       0.99083   0.59559   0.71108   0.10805
H          H       0.05124   0.39614   0.77817   0.12052
H          H       0.94190   0.59492   0.70010   0.12234
H          H       0.10159   0.48053   0.56547   0.11375
H          H       0.89325   0.51370   0.94372   0.11529
H          H       0.05365   0.47988   0.54699   0.11085
H          H       0.94153   0.51416   0.95125   0.11266
H          H       0.13988   0.47733   0.60957   0.07831
H          H       0.85376   0.51221   0.85901   0.07923
H          H       0.20805   0.50088   0.06702   0.13542
H          H       0.79950   0.50775   0.44103   0.13190
H          H       0.00718   0.60583  -0.00124   0.11334
H          H       0.98518   0.38727   0.46901   0.11241
C          C       0.53382  -0.00041   0.18933   0.15480
C          C       0.47820   0.00130   0.30111   0.15627
C          C       0.51154   0.97961   0.29872  -0.17072
C          C       0.50048   0.02123   0.19148  -0.16535
C          C       0.48426   0.98035   0.35340  -0.15849
C          C       0.52771   0.02039   0.13674  -0.16445
C          C       0.56145   0.97033   0.12214   0.16977
C          C       0.44938   0.02992   0.37018   0.17122
C          C       0.53582   0.94288   0.07181  -0.16394
C          C       0.47399   0.05851   0.41817  -0.17899
C          C       0.53331   0.91481   0.08094  -0.15311
C          C       0.47285   0.08539   0.42108  -0.15606
C          C       0.55662   0.91294   0.13932   0.19452
C          C       0.44711   0.08493   0.37598   0.19462
C          C       0.58296   0.94046   0.17970  -0.12843
C          C       0.42230   0.05612   0.33417  -0.13001
C          C       0.58561   0.96859   0.16945  -0.18393
C          C       0.42332   0.02936   0.33186  -0.18041
C          C       0.53499   0.85916   0.12204   0.04647
C          C       0.46406   0.13809   0.39511   0.05111
C          C       0.53827   0.83406   0.15001  -0.01313
C          C       0.45928   0.16202   0.36276  -0.01303
C          C       0.51920   0.80302   0.11888  -0.21196
C          C       0.47802   0.19320   0.39031  -0.21340
C          C       0.42270   0.97473   0.38382   0.16653
C          C       0.58932   0.02610   0.10814   0.17213
C          C       0.39998   0.97500   0.50791  -0.17513
C          C       0.61406   0.02638  -0.00232  -0.18529
C          C       0.37202   0.94895   0.52990  -0.13211
C          C       0.64069   0.05359   0.97173  -0.13282
C          C       0.36559   0.92123   0.42989   0.19136
C          C       0.64418   0.08173   0.05638   0.18780
C          C       0.38857   0.92107   0.30519  -0.15790
C          C       0.61969   0.08113   0.17158  -0.15477
C          C       0.41654   0.94718   0.28284  -0.17475
C          C       0.59307   0.05406   0.19749  -0.16856
C          C       0.33024   0.86903   0.39423   0.05643
C          C       0.67760   0.13465   0.09162   0.04725
C          C       0.29041   0.84165   0.92967  -0.01499
C          C       0.70069   0.15318   0.59836  -0.01690
C          C       0.29056   0.81414   0.34128  -0.22301
C          C       0.71655   0.19016   0.13883  -0.22222
C          C       0.52882   0.52725   0.25249   0.16169
C          C       0.47377   0.47023   0.24693   0.16070
C          C       0.47400   0.49725   0.32715  -0.16118
C          C       0.52863   0.50022   0.17254  -0.16467
C          C       0.50083   0.52498   0.33060  -0.16278
C          C       0.50181   0.47239   0.16981  -0.16489
C          C       0.41838   0.44192   0.23277   0.16550
C          C       0.58435   0.55681   0.26177   0.16593
C          C       0.41900   0.46301   0.14409  -0.18622
C          C       0.58449   0.53500   0.34134  -0.18495
C          C       0.39268   0.46459   0.13836  -0.13210
C          C       0.61125   0.53409   0.34309  -0.13519
C          C       0.36435   0.44490   0.21955   0.18905
C          C       0.63932   0.55530   0.26761   0.19240
C          C       0.36371   0.42320   0.30526  -0.15406
C          C       0.63930   0.57784   0.19242  -0.15578
C          C       0.39015   0.42189   0.31285  -0.16752
C          C       0.61235   0.57840   0.18749  -0.17062
C          C       0.31216   0.43278   0.27323   0.05642
C          C       0.69121   0.56712   0.19894   0.05627
C          C       0.28832   0.43912   0.25563  -0.01338
C          C       0.71570   0.56196   0.21809  -0.01280
C          C       0.25734   0.42272   0.30517  -0.21585
C          C       0.74620   0.57755   0.15817  -0.20907
C          C       0.24001   0.43543   0.26840   0.07795
C          C       0.76436   0.56654   0.20308   0.07554
C          C       0.25935   0.46280   0.19087  -0.00192
C          C       0.74602   0.54121   0.29729  -0.00025
C          C       0.24770   0.47942   0.14363  -0.18298
C          C       0.75851   0.52629   0.35342  -0.18415
C          C       0.21583   0.46850   0.17058   0.07462
C          C       0.79027   0.53711   0.31930   0.07332
C          C       0.19651   0.44097   0.24670   0.00128
C          C       0.80871   0.56273   0.22715  -0.00067
C          C       0.20818   0.42467   0.29666  -0.18195
C          C       0.79611   0.57727   0.16831  -0.18300
C          C       0.55472   0.58271   0.24667   0.16875
C          C       0.44624   0.41446   0.25158   0.17104
C          C       0.57505   0.61135   0.32315  -0.16957
C          C       0.42411   0.38598   0.18273  -0.17077
C          C       0.57263   0.63716   0.31750  -0.15520
C          C       0.42513   0.35940   0.18834  -0.15211
C          C       0.54965   0.63545   0.23697   0.18938
C          C       0.44866   0.36004   0.25882   0.18746
C          C       0.52909   0.60662   0.16391  -0.13378
C          C       0.47060   0.38858   0.32713  -0.13031
C          C       0.53183   0.58098   0.16679  -0.18750
C          C       0.46927   0.41506   0.32524  -0.18820
C          C       0.56472   0.68789   0.26166   0.05102
C          C       0.43469   0.30749   0.21003   0.04751
C          C       0.55860   0.71173   0.24407  -0.01485
C          C       0.44016   0.28336   0.23146  -0.01059
C          C       0.57689   0.74278   0.28020  -0.21695
C          C       0.42230   0.25226   0.19309  -0.21352
C          C       0.56417   0.76028   0.24686   0.07780
C          C       0.43416   0.23477   0.23719   0.07885
C          C       0.53504   0.74112   0.18432  -0.00157
C          C       0.46255   0.25414   0.30700   0.00103
C          C       0.51840   0.75317   0.14145  -0.18604
C          C       0.47874   0.24240   0.35771  -0.18519
C          C       0.53104   0.78515   0.15867   0.07637
C          C       0.46622   0.21050   0.34391   0.07432
C          C       0.56017   0.80421   0.22141   0.00065
C          C       0.43748   0.19108   0.27766  -0.00094
C          C       0.57655   0.79217   0.26681  -0.18259
C          C       0.42172   0.20283   0.22243  -0.18477
C          C       0.02365   0.52648   0.34578  -0.16460
C          C       0.98180   0.47889   0.14954  -0.15728
C          C       0.02403   0.49886   0.30962  -0.16226
C          C       0.98125   0.50642   0.18696  -0.16430
C          C       0.03002   0.58668   0.32693   0.16922
C          C       0.97522   0.41859   0.17052   0.17283
C          C       0.05600   0.58908   0.22111  -0.17439
C          C       0.94835   0.41687   0.26363  -0.18275
C          C       0.08377   0.61581   0.22949  -0.13551
C          C       0.92075   0.39003   0.25446  -0.13307
C          C       0.08699   0.64134   0.34280   0.18683
C          C       0.91853   0.36376   0.15171   0.18509
C          C       0.06050   0.63924   0.44436  -0.15562
C          C       0.94570   0.36538   0.06126  -0.15635
C          C       0.03275   0.61253   0.43591  -0.16923
C          C       0.97333   0.39211   0.07139  -0.17287
C          C       0.11791   0.68351   0.95863   0.06709
C          C       0.87407   0.31031   0.53304   0.06813
C          C       0.14780   0.70966   0.95367  -0.01252
C          C       0.84416   0.28422   0.54601  -0.01156
C          C       0.15823   0.73621   0.06130  -0.21393
C          C       0.83258   0.25763   0.43911  -0.21049
C          C       0.18926   0.75779   0.01716   0.07079
C          C       0.80191   0.23620   0.49114   0.07498
C          C       0.21002   0.74884   0.37296  -0.00183
C          C       0.79708   0.25565   0.11062  -0.00229
C          C       0.24111   0.76340   0.31950  -0.18154
C          C       0.76571   0.24135   0.15690  -0.18161
C          C       0.24963   0.79262   0.87843   0.07236
C          C       0.74236   0.20211   0.64152   0.07121
C          C       0.23701   0.80438   0.02447   0.00059
C          C       0.75378   0.18989   0.49245  -0.00036
C          C       0.20721   0.78733   0.09431  -0.17956
C          C       0.78317   0.20667   0.41658  -0.17797
C          C       0.03152   0.44596   0.16304   0.16704
C          C       0.97378   0.55928   0.33187   0.16957
C          C       0.03287   0.42316   0.22675  -0.18143
C          C       0.97310   0.58294   0.27322  -0.18704
C          C       0.06070   0.42439   0.22962  -0.12840
C          C       0.94548   0.58163   0.26380  -0.13503
C          C       0.08852   0.44839   0.16973   0.19425
C          C       0.91737   0.55707   0.31555   0.19496
C          C       0.08700   0.47077   0.10034  -0.15088
C          C       0.91819   0.53407   0.38263  -0.15501
C          C       0.05908   0.46942   0.09604  -0.17248
C          C       0.94585   0.53531   0.39165  -0.17098
C          C       0.14238   0.46698   0.13946   0.04959
C          C       0.86399   0.53974   0.34898   0.05434
C          C       0.16711   0.46294   0.16841  -0.01094
C          C       0.83920   0.54315   0.31613  -0.01382
C          C       0.19826   0.48048   0.12809  -0.21036
C          C       0.80841   0.52645   0.36756  -0.20962
C          C       0.00214   0.53072   0.28607   0.15819
C          C       0.00309   0.47453   0.21073   0.15352
C          C       0.51991   0.99762   0.71344   0.15804
C          C       0.46511   0.00089   0.82775   0.15565
C          C       0.49757   0.97810   0.82446  -0.16876
C          C       0.48736   0.02028   0.71596  -0.17369
C          C       0.47085   0.97985   0.88102  -0.16491
C          C       0.51417   0.01870   0.65988  -0.16156
C          C       0.54919   0.96922   0.64684   0.16892
C          C       0.43718   0.03016   0.89250   0.16855
C          C       0.52572   0.94050   0.59044  -0.17853
C          C       0.46227   0.05800   0.94478  -0.16778
C          C       0.52773   0.91406   0.58650  -0.15541
C          C       0.46371   0.08578   0.93901  -0.15160
C          C       0.55311   0.91518   0.64008   0.19363
C          C       0.44006   0.08701   0.88000   0.19559
C          C       0.57688   0.94417   0.69033  -0.13218
C          C       0.41432   0.05906   0.83715  -0.13340
C          C       0.57505   0.97048   0.69287  -0.17822
C          C       0.41264   0.03126   0.84497  -0.18713
C          C       0.53780   0.86234   0.60969   0.05366
C          C       0.46077   0.14066   0.89292   0.04848
C          C       0.54223   0.83828   0.64324  -0.01634
C          C       0.45752   0.16545   0.85940  -0.01122
C          C       0.52479   0.80720   0.60138  -0.21250
C          C       0.47649   0.19654   0.89065  -0.21130
C          C       0.40977   0.97450   0.90888   0.16711
C          C       0.57533   0.02412   0.62973   0.16462
C          C       0.38542   0.97425   0.02255  -0.18451
C          C       0.59756   0.02344   0.50353  -0.17658
C          C       0.35912   0.94701   0.05243  -0.13732
C          C       0.62524   0.04948   0.47509  -0.13339
C          C       0.35554   0.91895   0.96703   0.19268
C          C       0.63208   0.07753   0.57225   0.19191
C          C       0.37982   0.91933   0.85117  -0.16394
C          C       0.60941   0.07823   0.69763  -0.16263
C          C       0.40614   0.94650   0.82133  -0.16773
C          C       0.58166   0.05208   0.72634  -0.17543
C          C       0.31924   0.86826   0.90160   0.06137
C          C       0.67144   0.12726   0.63236   0.06940
C          C       0.30008   0.84371   0.41623  -0.01441
C          C       0.70751   0.16031   0.07024  -0.01159
C          C       0.28001   0.81447   0.82759  -0.21704
C          C       0.71214   0.18071   0.69772  -0.21358
C          C       0.52625   0.52926   0.75444   0.16454
C          C       0.47042   0.47292   0.74246   0.16318
C          C       0.47104   0.50010   0.82344  -0.16698
C          C       0.52556   0.50205   0.67366  -0.16608
C          C       0.49828   0.52755   0.82940  -0.16713
C          C       0.49840   0.47467   0.66766  -0.16407
C          C       0.41460   0.44325   0.73244   0.16850
C          C       0.58190   0.55750   0.76638   0.16704
C          C       0.41342   0.46527   0.65989  -0.18776
C          C       0.58172   0.53544   0.84543  -0.18548
C          C       0.38587   0.46482   0.66004  -0.13137
C          C       0.60844   0.53448   0.84867  -0.13310
C          C       0.35822   0.44217   0.73085   0.18857
C          C       0.63677   0.55588   0.77597   0.18845
C          C       0.35942   0.41969   0.80052  -0.15286
C          C       0.63691   0.57824   0.69806  -0.15316
C          C       0.38701   0.42034   0.80281  -0.16958
C          C       0.61007   0.57888   0.69186  -0.16817
C          C       0.30527   0.42633   0.79215   0.05006
C          C       0.68984   0.57158   0.73918   0.04717
C          C       0.28034   0.43137   0.78038  -0.01261
C          C       0.71402   0.56506   0.74676  -0.01228
C          C       0.24950   0.41433   0.82999  -0.21339
C          C       0.74521   0.58327   0.71183  -0.21837
C          C       0.23162   0.42658   0.79480   0.07770
C          C       0.76271   0.56962   0.73410   0.07892
C          C       0.25049   0.45424   0.71932  -0.00026
C          C       0.74328   0.53969   0.78494   0.00034
C          C       0.23842   0.47063   0.67469  -0.18367
C          C       0.75500   0.52175   0.81463  -0.18343
C          C       0.20652   0.45912   0.70197   0.07651
C          C       0.78699   0.53380   0.79704   0.07649
C          C       0.18753   0.43112   0.77408  -0.00231
C          C       0.80643   0.56386   0.74805   0.00252
C          C       0.19970   0.41505   0.82192  -0.18645
C          C       0.79471   0.58156   0.71507  -0.18386
C          C       0.55391   0.58499   0.75350   0.16712
C          C       0.44400   0.41735   0.74425   0.16402
C          C       0.57469   0.61291   0.83385  -0.16766
C          C       0.42471   0.38933   0.65860  -0.16648
C          C       0.57402   0.63970   0.82879  -0.15379
C          C       0.42650   0.36320   0.66491  -0.15775
C          C       0.55226   0.63973   0.74559   0.19127
C          C       0.44796   0.36409   0.75442   0.19169
C          C       0.53138   0.61161   0.66739  -0.13231
C          C       0.46720   0.39230   0.83891  -0.13414
C          C       0.53233   0.58494   0.67005  -0.18703
C          C       0.46501   0.41827   0.83553  -0.18353
C          C       0.56688   0.69257   0.79180   0.05141
C          C       0.43424   0.31176   0.71146   0.05505
C          C       0.56160   0.71673   0.76822  -0.01320
C          C       0.43999   0.28780   0.73168  -0.01389
C          C       0.57815   0.74766   0.81748  -0.21083
C          C       0.42237   0.25678   0.68973  -0.21508
C          C       0.56652   0.76516   0.77108   0.07634
C          C       0.43416   0.23918   0.73276   0.07734
C          C       0.53992   0.74599   0.68549   0.00021
C          C       0.46215   0.25831   0.80675  -0.00177
C          C       0.52453   0.75781   0.62730  -0.18324
C          C       0.47789   0.24633   0.86000  -0.18562
C          C       0.53585   0.78965   0.65234   0.07486
C          C       0.46543   0.21435   0.84244   0.07740
C          C       0.56260   0.80885   0.73660  -0.00254
C          C       0.43715   0.19525   0.77106  -0.00022
C          C       0.57774   0.79699   0.79673  -0.18322
C          C       0.42176   0.20725   0.71482  -0.18301
C          C       0.01886   0.52021   0.83448  -0.16137
C          C       0.97559   0.47265   0.64568  -0.16646
C          C       0.01889   0.49243   0.79654  -0.16595
C          C       0.97568   0.50051   0.68291  -0.16461
C          C       0.02572   0.58090   0.82231   0.16606
C          C       0.96840   0.41203   0.66007   0.16190
C          C       0.05228   0.58310   0.72350  -0.18101
C          C       0.94280   0.40970   0.76935  -0.17378
C          C       0.07973   0.61022   0.72960  -0.13844
C          C       0.91501   0.38293   0.76408  -0.14017
C          C       0.08210   0.63609   0.83713   0.19122
C          C       0.91144   0.35745   0.64939   0.19708
C          C       0.05521   0.63403   0.93293  -0.16161
C          C       0.93755   0.35953   0.54439  -0.16217
C          C       0.02771   0.60703   0.92518  -0.16947
C          C       0.96533   0.38628   0.54974  -0.16745
C          C       0.12310   0.69112   0.44188   0.05916
C          C       0.88397   0.31326   0.05625   0.05511
C          C       0.15386   0.71584   0.43649  -0.00832
C          C       0.85341   0.28837   0.05734  -0.00680
C          C       0.16378   0.74484   0.51985  -0.21908
C          C       0.84414   0.25889   0.98222  -0.22276
C          C       0.19573   0.76446   0.48520   0.07433
C          C       0.81205   0.23942   0.01162   0.07342
C          C       0.20209   0.74606   0.87170  -0.00256
C          C       0.79046   0.24812   0.64145   0.00015
C          C       0.23185   0.76311   0.80220  -0.17919
C          C       0.76100   0.23157   0.71587  -0.17859
C          C       0.25874   0.79435   0.37827   0.07135
C          C       0.74848   0.20998   0.10518   0.07493
C          C       0.24434   0.81011   0.48813  -0.00151
C          C       0.76351   0.19376   0.00668   0.00013
C          C       0.21331   0.79545   0.54294  -0.17983
C          C       0.79480   0.20815   0.95879  -0.18169
C          C       0.02445   0.43822   0.65889   0.17053
C          C       0.96968   0.55434   0.82531   0.17187
C          C       0.02411   0.41393   0.71693  -0.19104
C          C       0.96938   0.57761   0.76033  -0.18408
C          C       0.05124   0.41435   0.72826  -0.13521
C          C       0.94213   0.57743   0.75590  -0.12870
C          C       0.07992   0.43865   0.68050   0.18994
C          C       0.91380   0.55396   0.81530   0.19049
C          C       0.08011   0.46207   0.61217  -0.15254
C          C       0.91432   0.53134   0.88794  -0.15344
C          C       0.05298   0.46170   0.60055  -0.17000
C          C       0.94168   0.53168   0.89384  -0.17156
C          C       0.13321   0.45702   0.66825   0.05092
C          C       0.86022   0.53437   0.82129   0.04645
C          C       0.15762   0.45288   0.69991  -0.01430
C          C       0.83575   0.53950   0.79998  -0.01254
C          C       0.18872   0.47099   0.66213  -0.21793
C          C       0.80451   0.52052   0.82490  -0.21284
C          C       0.99728   0.52488   0.77845   0.15656
C          C       0.99732   0.46805   0.70080   0.15626
S          S       0.57177   0.84288   0.22847   0.08943
S          S       0.42610   0.15251   0.27792   0.09258
S          S       0.26327   0.84166   0.09368   0.09976
S          S       0.72665   0.15253   0.42864   0.09842
S          S       0.29771   0.47131   0.16396   0.09085
S          S       0.70763   0.53255   0.32974   0.08331
S          S       0.52456   0.70248   0.17020   0.09429
S          S       0.47291   0.29270   0.31936   0.08702
S          S       0.18359   0.71109   0.31391   0.10172
S          S       0.82301   0.29381   0.16437   0.09682
S          S       0.15788   0.43100   0.26241   0.08417
S          S       0.84743   0.57264   0.20443   0.08486
S          S       0.57315   0.84747   0.74768   0.09006
S          S       0.42516   0.15655   0.76891   0.08764
S          S       0.27033   0.84850   0.53766   0.10469
S          S       0.73787   0.15519   0.95995   0.10360
S          S       0.28903   0.46366   0.69184   0.08337
S          S       0.70465   0.52984   0.80420   0.09241
S          S       0.53054   0.70756   0.66490   0.08585
S          S       0.47241   0.29692   0.82226   0.08812
S          S       0.17581   0.70948   0.79573   0.09239
S          S       0.81780   0.28445   0.71419   0.09046
S          S       0.14875   0.42042   0.78733   0.09045
S          S       0.84512   0.57460   0.74039   0.08911
N          N       0.56170   0.99865   0.13260  -0.11782
N          N       0.45048   0.00220   0.35786  -0.12151
N          N       0.55652   0.88657   0.16183  -0.29323
N          N       0.44381   0.10984   0.35978  -0.29392
N          N       0.32778   0.89309   0.00298  -0.29589
N          N       0.66062   0.10234   0.53188  -0.30212
N          N       0.55621   0.55587   0.25371  -0.11664
N          N       0.44601   0.44190   0.24390  -0.11704
N          N       0.33980   0.44925   0.20687  -0.29407
N          N       0.66445   0.55175   0.27725  -0.29704
N          N       0.54508   0.65960   0.22185  -0.29173
N          N       0.45243   0.33522   0.27078  -0.29616
N          N       0.11644   0.66621   0.34222  -0.30069
N          N       0.88932   0.33874   0.14819  -0.30117
N          N       0.11464   0.44755   0.19054  -0.29848
N          N       0.89161   0.55818   0.29121  -0.29627
N          N       0.00180   0.55901   0.32477  -0.12319
N          N       0.00336   0.44618   0.17324  -0.11895
N          N       0.54760   0.99665   0.65779  -0.12704
N          N       0.43734   0.00205   0.88312  -0.12142
N          N       0.55668   0.89050   0.65768  -0.29521
N          N       0.43940   0.11297   0.85664  -0.29492
N          N       0.33661   0.89649   0.46112  -0.29282
N          N       0.67231   0.10741   0.02510  -0.29251
N          N       0.55413   0.55740   0.75900  -0.11805
N          N       0.44291   0.44447   0.73739  -0.11807
N          N       0.33223   0.44442   0.72473  -0.29827
N          N       0.66178   0.55212   0.78526  -0.29111
N          N       0.54918   0.66483   0.73077  -0.29698
N          N       0.45225   0.33968   0.76838  -0.29465
N          N       0.11098   0.66178   0.83748  -0.30494
N          N       0.88239   0.33198   0.65421  -0.30071
N          N       0.10513   0.43669   0.70661  -0.29431
N          N       0.88824   0.55591   0.79582  -0.29191
N          N       0.99738   0.55337   0.81808  -0.12527
N          N       0.99700   0.43944   0.66262  -0.12318

