data_crystal

_audit_creation_method 'AiiDA-DDEC plugin'

_cell_length_a        40.35506
_cell_length_b        40.52580
_cell_length_c         7.93251

_cell_angle_alpha     92.10880
_cell_angle_beta     90.08577
_cell_angle_gamma     120.12506

_symmetry_space_group_name_Hall 'P 1'
_symmetry_space_group_name_H-M  'P 1'

loop_
_symmetry_equiv_pos_as_xyz
 'x,y,z'

loop_
_atom_site_label
_atom_site_type_symbol
_atom_site_fract_x
_atom_site_fract_y
_atom_site_fract_z
_atom_site_charge
H          H       0.86744   0.64304   0.30266   0.10180
H          H       0.35883   0.22668   0.31541   0.10222
H          H       0.77868   0.13501   0.28267   0.10116
H          H       0.93161   0.64982   0.29636   0.10981
H          H       0.35147   0.28358   0.31577   0.10817
H          H       0.72134   0.07096   0.28257   0.10895
H          H       0.97364   0.75481   0.03795   0.10541
H          H       0.24971   0.22111   0.00158   0.10522
H          H       0.77948   0.02686   0.97388   0.10544
H          H       0.90976   0.74893   0.05665   0.11487
H          H       0.25611   0.16358   0.01162   0.11561
H          H       0.83800   0.09082   0.98730   0.11507
H          H       0.97412   0.64488   0.15178   0.10309
H          H       0.35895   0.33073   0.16096   0.10305
H          H       0.67261   0.02893   0.14208   0.10167
H          H       0.09457   0.71301   0.05573   0.11431
H          H       0.29125   0.38320   0.06413   0.11169
H          H       0.61667   0.90696   0.05640   0.11175
H          H       0.02722   0.76703   0.12023   0.10167
H          H       0.23603   0.26198   0.10944   0.10304
H          H       0.73926   0.97347   0.07533   0.10280
H          H       0.09461   0.80554   0.05814   0.05983
H          H       0.19711   0.29184   0.05950   0.06098
H          H       0.70893   0.90567   0.02521   0.05983
H          H       0.71988   0.64565   0.39122   0.10394
H          H       0.34970   0.07044   0.36477   0.10474
H          H       0.92579   0.27789   0.37506   0.10399
H          H       0.78307   0.65276   0.46041   0.10095
H          H       0.34394   0.12746   0.43022   0.10091
H          H       0.86923   0.21553   0.43388   0.09972
H          H       0.81613   0.76347   0.23632   0.11993
H          H       0.23999   0.05665   0.19613   0.11997
H          H       0.94881   0.18442   0.18675   0.12066
H          H       0.75239   0.75637   0.17576   0.10032
H          H       0.24600  -0.00068   0.14181   0.10525
H          H       0.00565   0.24800   0.14803   0.10394
H          H       0.82179   0.66235   0.20382   0.06178
H          H       0.34073   0.16222   0.20016   0.06305
H          H       0.84221   0.17927   0.17891   0.05988
H          H       0.51198   0.90793   0.25386   0.10418
H          H       0.09126   0.60463   0.26663   0.10346
H          H       0.39782   0.49127   0.26114   0.10437
H          H       0.57609   0.91375   0.25132   0.11614
H          H       0.08769   0.66392   0.26842   0.11339
H          H       0.34029   0.42673   0.27006   0.11595
H          H       0.61912   0.01568   0.96968   0.10410
H          H       0.98872   0.60797   0.93516   0.10246
H          H       0.39624   0.38088   0.96020   0.10585
H          H       0.55380   0.00447   0.47435   0.11310
H          H       0.99334   0.54773   0.46775   0.11215
H          H       0.44982   0.44419   0.46919   0.11441
H          H       0.23989   0.95970   0.43920   0.10073
H          H       0.03810   0.27940   0.46253   0.09943
H          H       0.71944   0.75681   0.46007   0.10006
H          H       0.30611   0.90400   0.38414   0.10002
H          H       0.09402   0.40014   0.39790   0.10235
H          H       0.59691   0.69028   0.40403   0.10021
H          H       0.36290   0.02545   0.47874   0.10339
H          H       0.97290   0.33699   0.47808   0.10412
H          H       0.66179   0.63447   0.48296   0.10358
H          H       0.19708   0.90421   0.27366   0.10700
H          H       0.09100   0.28940   0.28936   0.10400
H          H       0.70699   0.79746   0.29221   0.10499
H          H       0.13746   0.84290   0.31271   0.10282
H          H       0.15352   0.29238   0.32509   0.10373
H          H       0.70335   0.85654   0.32286   0.10729
H          H       0.19717   0.79809   0.08135   0.11961
H          H       0.20643   0.40180   0.11728   0.11961
H          H       0.59919   0.80318   0.09074   0.11951
H          H       0.25713   0.86003   0.05180   0.10673
H          H       0.14421   0.40024   0.09067   0.10692
H          H       0.60241   0.74361   0.06980   0.10386
H          H       0.35023   0.91051   0.07929   0.10266
H          H       0.09295   0.44610   0.08307   0.10314
H          H       0.55800   0.64954   0.07499   0.10607
H          H       0.41189   0.91265   0.11495   0.10785
H          H       0.09001   0.50529   0.09680   0.10780
H          H       0.49821   0.58791   0.09364   0.10726
H          H       0.47121   0.01998   0.35292   0.11854
H          H       0.98359   0.45157   0.31187   0.11621
H          H       0.54381   0.52677   0.32298   0.12059
H          H       0.40950   0.01930   0.31647   0.10630
H          H       0.98306   0.38975   0.28356   0.10778
H          H       0.60567   0.58749   0.29325   0.10811
H          H       0.46986   0.93288   0.19310   0.06649
H          H       0.06381   0.53709   0.19314   0.06624
H          H       0.46328   0.53299   0.18066   0.06504
H          H       0.87260   0.64448   0.81374   0.10157
H          H       0.35661   0.22965   0.80875   0.10335
H          H       0.77077   0.12870   0.78154   0.10226
H          H       0.93740   0.65278   0.81176   0.10539
H          H       0.34787   0.28559   0.81021   0.10780
H          H       0.71471   0.06379   0.78272   0.10526
H          H       0.97601   0.75240   0.51739   0.10459
H          H       0.24539   0.22144   0.50187   0.10501
H          H       0.77606   0.02178   0.48396   0.10595
H          H       0.91130   0.74489   0.52890   0.11338
H          H       0.25343   0.16482   0.50895   0.11416
H          H       0.83328   0.08665   0.49671   0.11524
H          H       0.97903   0.64655   0.66853   0.10135
H          H       0.35358   0.33204   0.66426   0.10131
H          H       0.66686   0.02047   0.65475   0.10115
H          H       0.09864   0.71399   0.55426   0.11269
H          H       0.28486   0.38326   0.56336   0.11325
H          H       0.61320   0.89888   0.56321   0.11351
H          H       0.03096   0.76784   0.61671   0.10267
H          H       0.23085   0.26219   0.61132   0.10251
H          H       0.73579   0.96786   0.57563   0.10209
H          H       0.09729   0.80626   0.55014   0.06038
H          H       0.19167   0.29092   0.55845   0.06145
H          H       0.70662   0.89967   0.54153   0.06057
H          H       0.71979   0.65297   0.88150   0.10420
H          H       0.34872   0.06638   0.86643   0.10477
H          H       0.93502   0.28206   0.88514   0.10455
H          H       0.78254   0.65893   0.95083   0.10220
H          H       0.34420   0.12409   0.93246   0.10369
H          H       0.87811   0.21942   0.93439   0.10346
H          H       0.81786   0.76070   0.71726   0.12189
H          H       0.23947   0.05857   0.68988   0.12106
H          H       0.94143   0.18270   0.68954   0.12148
H          H       0.75375   0.75241   0.65918   0.10315
H          H       0.24725   0.00213   0.64026   0.10384
H          H       0.99754   0.24653   0.64689   0.10433
H          H       0.82574   0.66104   0.71025   0.06221
H          H       0.33912   0.16500   0.69546   0.06405
H          H       0.83315   0.17412   0.67495   0.06138
H          H       0.50693   0.90347   0.76094   0.10438
H          H       0.10152   0.60862   0.73548   0.10412
H          H       0.39528   0.49225   0.77387   0.10426
H          H       0.56983   0.90640   0.76293   0.11651
H          H       0.09686   0.66744   0.74600   0.11693
H          H       0.33573   0.42902   0.77307   0.11586
H          H       0.61730   0.00828   0.47962   0.10500
H          H       0.98777   0.60624   0.48305   0.10584
H          H       0.39090   0.38009   0.47691   0.10383
H          H       0.55407   0.00844   0.96554   0.11349
H          H       0.99389   0.54918   0.92560   0.11378
H          H       0.45334   0.44616   0.94499   0.11043
H          H       0.23775   0.95659   0.94935   0.09983
H          H       0.04748   0.28462   0.97811   0.09944
H          H       0.71862   0.76253   0.96725   0.10115
H          H       0.30251   0.89944   0.88664   0.10028
H          H       0.10147   0.40496   0.90781   0.10120
H          H       0.59639   0.69526   0.89793   0.09982
H          H       0.36086   0.02110   0.97566   0.10441
H          H       0.98053   0.34022  -0.00402   0.10150
H          H       0.66171   0.64050   0.99506   0.10364
H          H       0.19384   0.90294   0.79243   0.10626
H          H       0.09771   0.29463   0.79634   0.10644
H          H       0.70679   0.80176   0.79539   0.10647
H          H       0.13368   0.84211   0.83322   0.10365
H          H       0.15884   0.29486   0.83353   0.10301
H          H       0.70470   0.86164   0.82450   0.10480
H          H       0.20095   0.80253   0.58743   0.11829
H          H       0.19815   0.39948   0.60447   0.12004
H          H       0.59852   0.79639   0.59111   0.11847
H          H       0.26044   0.86500   0.55934   0.10418
H          H       0.13512   0.39585   0.57575   0.10635
H          H       0.60283   0.73754   0.56789   0.10380
H          H       0.35164   0.91281   0.56571   0.10287
H          H       0.08305   0.43674   0.60940   0.10247
H          H       0.56214   0.64668   0.59798   0.10196
H          H       0.41229   0.91301   0.59615   0.10791
H          H       0.08351   0.49728   0.63852   0.10592
H          H       0.50133   0.58696   0.62684   0.10818
H          H       0.46716   0.01468   0.83399   0.11774
H          H       0.98138   0.44759   0.83142   0.11832
H          H       0.55114   0.53123   0.84118   0.11843
H          H       0.40460   0.01231   0.79629   0.10722
H          H       0.98432   0.38762   0.81607   0.10746
H          H       0.61131   0.59369   0.81754   0.10702
H          H       0.46695   0.93152   0.69003   0.06693
H          H       0.07467   0.54164   0.66755   0.06731
H          H       0.46323   0.53210   0.70050   0.06503
C          C       0.88417   0.69541   0.17810   0.04857
C          C       0.30796   0.19124   0.16200   0.04684
C          C       0.81236   0.11721   0.13537   0.04829
C          C       0.89086   0.66757   0.24447  -0.12670
C          C       0.33490   0.22550   0.24635  -0.12685
C          C       0.77890   0.11118   0.21581  -0.12715
C          C       0.92713   0.67132   0.23938  -0.13570
C          C       0.33096   0.25774   0.24501  -0.13656
C          C       0.74635   0.07504   0.21380  -0.13776
C          C       0.95784   0.70264   0.16399   0.06703
C          C       0.30045   0.25711   0.15612   0.06663
C          C       0.74574   0.04381   0.12701   0.06725
C          C       0.95093   0.73083   0.10137  -0.13148
C          C       0.27307   0.22232   0.07510  -0.13149
C          C       0.77952   0.05009   0.04714  -0.13247
C          C       0.91512   0.72760   0.10943  -0.09835
C          C       0.27659   0.19004   0.07851  -0.09973
C          C       0.81227   0.08588   0.05219  -0.09791
C          C       0.99558   0.70553   0.14081   0.07098
C          C       0.29784   0.29192   0.13798   0.07169
C          C       0.71041   0.00605   0.11243   0.07144
C          C       0.03462   0.67482   0.10802   0.07534
C          C       0.32931   0.36143   0.11634   0.07118
C          C       0.64006   0.96778   0.10450   0.07281
C          C      -0.00078   0.67278   0.13507  -0.17317
C          C       0.33107   0.32816   0.14079  -0.17441
C          C       0.67427   0.00311   0.12208  -0.17252
C          C       0.06682   0.71025   0.08094  -0.14942
C          C       0.29366   0.35821   0.08764  -0.14866
C          C       0.64237   0.93480   0.07426  -0.14933
C          C       0.06388   0.74332   0.08117   0.06965
C          C       0.26001   0.32244   0.08340   0.06988
C          C       0.67802   0.93688   0.06090   0.06848
C          C       0.02868   0.74091   0.11480  -0.18140
C          C       0.26228   0.28963   0.11003  -0.17993
C          C       0.71177   0.97234   0.08247  -0.18050
C          C       0.09747   0.77994   0.04422   0.07071
C          C       0.22311   0.32001   0.05057   0.07166
C          C       0.68010   0.90231   0.02473   0.07105
C          C       0.73221   0.69896   0.51610   0.05130
C          C       0.29864   0.03162   0.49553   0.04809
C          C       0.96631   0.26693   0.50429   0.05157
C          C       0.74086   0.67055   0.46600  -0.12043
C          C       0.32622   0.06775   0.44162  -0.11945
C          C       0.92939   0.25779   0.44932  -0.12135
C          C       0.77551   0.67982   0.00271  -0.18615
C          C       0.32307   0.09680   0.98090  -0.18875
C          C       0.90599   0.22618   0.98499  -0.18704
C          C       0.80346   0.71149   0.09949   0.20457
C          C       0.29178   0.09432   0.06944   0.20394
C          C       0.90950   0.19778   0.06621   0.20549
C          C       0.79480   0.73941   0.15878  -0.15676
C          C       0.26363   0.05844   0.12369  -0.15767
C          C       0.94616   0.20617   0.12171  -0.15832
C          C       0.75928   0.73546   0.12277  -0.12554
C          C       0.26694   0.02638   0.09099  -0.12564
C          C       0.97790   0.24189   0.09859  -0.12591
C          C       0.84577   0.69047   0.17220   0.06768
C          C       0.31300   0.15796   0.15434   0.06737
C          C       0.84602   0.15538   0.13387   0.06883
C          C       0.52872   0.95769   0.10846   0.05298
C          C       0.04308   0.57306   0.09391   0.05052
C          C       0.42945   0.47289   0.10192   0.05062
C          C       0.53537   0.93123   0.18952  -0.11991
C          C       0.06931   0.60566   0.19086  -0.12050
C          C       0.39731   0.46719   0.19318  -0.11910
C          C       0.57138   0.93446   0.18781  -0.13354
C          C       0.06722   0.63896   0.19230  -0.13294
C          C       0.36492   0.43104   0.19769  -0.13423
C          C       0.60218   0.96508   0.11017   0.06546
C          C       0.03771   0.63996   0.10292   0.06751
C          C       0.36418   0.39943   0.11504   0.06757
C          C       0.59576   0.99231   0.03389  -0.13707
C          C       0.01106   0.60707   0.00824  -0.13955
C          C       0.39677   0.40504   0.02736  -0.13912
C          C       0.55957   0.98845   0.03077  -0.10367
C          C       0.01395   0.57432   0.00163  -0.10301
C          C       0.42864   0.44123   0.01829  -0.09861
C          C       0.26757   0.96125   0.43412  -0.18560
C          C       0.03647   0.30522   0.45143  -0.18533
C          C       0.69315   0.72923   0.45237  -0.18500
C          C       0.26873   0.92732   0.41298   0.08068
C          C       0.07042   0.33983   0.42948   0.07898
C          C       0.65799   0.72785   0.43044   0.07929
C          C       0.30467   0.92990   0.40573  -0.18723
C          C       0.06820   0.37312   0.41930  -0.18653
C          C       0.62444   0.69202   0.42277  -0.18713
C          C       0.33885   0.96504   0.42780   0.07749
C          C       0.03331   0.37245   0.43600   0.07992
C          C       0.62532   0.65814   0.43906   0.07902
C          C       0.33669   0.99839   0.45229  -0.18454
C          C      -0.00024   0.33741   0.45770  -0.18565
C          C       0.66093   0.66043   0.46230  -0.18350
C          C       0.30118   0.99698   0.45638   0.08169
C          C       0.00091   0.30343   0.46719   0.08114
C          C       0.69513   0.69593   0.47235   0.07984
C          C       0.23323   0.88969   0.41690   0.05492
C          C       0.10805   0.34198   0.43349   0.05656
C          C       0.65563   0.76309   0.43169   0.05687
C          C       0.37586   0.96601   0.43941   0.05794
C          C       0.03312   0.40880   0.44384   0.06123
C          C       0.58880   0.62157   0.44632   0.05917
C          C       0.19795   0.88257   0.34796  -0.12296
C          C       0.11397   0.31304   0.36298  -0.12162
C          C       0.68382   0.79725   0.36330  -0.12286
C          C       0.16425   0.84799   0.36993  -0.18114
C          C       0.14905   0.31455   0.38315  -0.18170
C          C       0.68189   0.83064   0.38039  -0.18055
C          C       0.16496   0.81900   0.45974   0.20132
C          C       0.17946   0.34542   0.47393   0.20244
C          C       0.65147   0.83086   0.46611   0.20130
C          C       0.19688   0.82130   0.01800  -0.15205
C          C       0.18239   0.37852   0.04714  -0.15509
C          C       0.62257   0.80248   0.02600  -0.15081
C          C       0.23378   0.85998   0.50106  -0.12665
C          C       0.13920   0.37343   0.51790  -0.12593
C          C       0.62462   0.76337   0.51130  -0.12699
C          C       0.37581   0.93322   0.02367  -0.12495
C          C       0.06838   0.44616   0.02690  -0.12235
C          C       0.55649   0.62369   0.02158  -0.12613
C          C       0.41073   0.93468   0.04516  -0.17008
C          C       0.06652   0.47954   0.03661  -0.17431
C          C       0.52295   0.58885   0.03449  -0.17193
C          C       0.44439   0.96488   0.98001   0.19419
C          C       0.03442   0.48009   0.97013   0.19993
C          C       0.52108   0.55482   0.97409   0.19661
C          C       0.44471   0.99688   0.40019  -0.15072
C          C       0.00504   0.44775   0.37742  -0.14691
C          C       0.54862   0.55326   0.38493  -0.15348
C          C       0.41014   0.99636   0.38093  -0.12718
C          C       0.00482   0.41327   0.36233  -0.13281
C          C       0.58314   0.58730   0.36919  -0.13042
C          C       0.49017   0.95241   0.10221   0.07278
C          C       0.04653   0.53885   0.09027   0.07473
C          C       0.46258   0.51110   0.09214   0.07299
C          C       0.88761   0.69432   0.67179   0.04698
C          C       0.30567   0.19335   0.65658   0.04734
C          C       0.80575   0.11208   0.63744   0.04974
C          C       0.89537   0.66823   0.74904  -0.12579
C          C       0.33231   0.22787   0.74036  -0.12515
C          C       0.77187   0.10514   0.71654  -0.12718
C          C       0.93195   0.67277   0.74648  -0.13468
C          C       0.32748   0.25960   0.74006  -0.13627
C          C       0.74007   0.06852   0.71522  -0.13334
C          C       0.96190   0.70317   0.66353   0.06722
C          C       0.29633   0.25828   0.65369   0.06710
C          C       0.74056   0.03760   0.63071   0.06767
C          C       0.95390   0.72946   0.58796  -0.13207
C          C       0.26930   0.22323   0.57321  -0.13246
C          C       0.77495   0.04476   0.55406  -0.13270
C          C       0.91767   0.72531   0.59230  -0.09769
C          C       0.27376   0.19147   0.57501  -0.09939
C          C       0.80703   0.08107   0.55869  -0.09764
C          C      -0.00005   0.70662   0.64468   0.07223
C          C       0.29277   0.29266   0.63871   0.07214
C          C       0.70588  -0.00072   0.61713   0.07102
C          C       0.03926   0.67614   0.61679   0.07258
C          C       0.32360   0.36235   0.62011   0.07427
C          C       0.63563   0.95955   0.61319   0.07364
C          C       0.00397   0.67419   0.64615  -0.17138
C          C       0.32558   0.32914   0.64321  -0.17073
C          C       0.66940   0.99525   0.63081  -0.16911
C          C       0.07110   0.71144   0.58277  -0.15030
C          C       0.28781   0.35862   0.58801  -0.14918
C          C       0.63858   0.92701   0.58057  -0.14941
C          C       0.06796   0.74440   0.57983   0.06897
C          C       0.25443   0.32254   0.58304   0.06761
C          C       0.67471   0.93010   0.56577   0.06767
C          C       0.03273   0.74189   0.61436  -0.18026
C          C       0.25699   0.28993   0.61118  -0.18189
C          C       0.70800   0.96601   0.58546  -0.18047
C          C       0.10106   0.78117   0.53895   0.07265
C          C       0.21729   0.31929   0.54688   0.07199
C          C       0.67772   0.89599   0.53088   0.07324
C          C       0.73154   0.70443   0.02229   0.05059
C          C       0.29745   0.02828  -0.00229   0.04711
C          C       0.97487   0.27035   0.01469   0.05009
C          C       0.74031   0.67661   0.96367  -0.11866
C          C       0.32550   0.06419   0.94379  -0.11853
C          C       0.93817   0.26157   0.95828  -0.11937
C          C       0.77639   0.67443   0.50488  -0.18873
C          C       0.32305   0.09998   0.47800  -0.18873
C          C       0.89742   0.22256   0.48150  -0.18989
C          C       0.80503   0.70750   0.59153   0.20450
C          C       0.29131   0.09692   0.56483   0.20337
C          C       0.90153   0.19469   0.56456   0.20381
C          C       0.79631   0.73574   0.64478  -0.15636
C          C       0.26353   0.06083   0.61893  -0.15930
C          C       0.93833   0.20383   0.62137  -0.15485
C          C       0.76044   0.73105   0.61025  -0.12385
C          C       0.26781   0.02922   0.58837  -0.12246
C          C       0.96970   0.23951   0.59504  -0.12292
C          C       0.84891   0.68861   0.66806   0.06854
C          C       0.31133   0.16041   0.64878   0.06799
C          C       0.83834   0.15088   0.63352   0.06634
C          C       0.52621   0.95370   0.61546   0.05244
C          C       0.04774   0.57429   0.59974   0.05252
C          C       0.42628   0.47247   0.61779   0.05366
C          C       0.53107   0.92617   0.69739  -0.12222
C          C       0.07678   0.60830   0.67857  -0.12259
C          C       0.39401   0.46786   0.70510  -0.12176
C          C       0.56641   0.92774   0.69800  -0.13424
C          C       0.07426   0.64138   0.68387  -0.13357
C          C       0.36053   0.43233   0.70493  -0.13467
C          C       0.59805   0.95744   0.62018   0.06527
C          C       0.04208   0.64115   0.61459   0.06713
C          C       0.35891   0.40018   0.62293   0.06621
C          C       0.59329   0.98566   0.54380  -0.13538
C          C       0.01254   0.60670   0.54002  -0.13722
C          C       0.39188   0.40467   0.54213  -0.13683
C          C       0.55802   0.98367   0.53947  -0.10231
C          C       0.01544   0.57399   0.53062  -0.09787
C          C       0.42475   0.44022   0.53695  -0.10152
C          C       0.26522   0.95780   0.94007  -0.18589
C          C       0.04514   0.31004   0.96666  -0.18578
C          C       0.69251   0.73480   0.95803  -0.18721
C          C       0.26583   0.92362   0.91807   0.07726
C          C       0.07862   0.34496   0.94321   0.07887
C          C       0.65727   0.73306   0.93298   0.08038
C          C       0.30147   0.92556   0.90849  -0.18948
C          C       0.07582   0.37793   0.93148  -0.19132
C          C       0.62381   0.69711   0.92244  -0.18988
C          C       0.33589   0.96050   0.92757   0.07893
C          C       0.04054   0.37659   0.94905   0.07856
C          C       0.62499   0.66344   0.94227   0.07736
C          C       0.33435   0.99419   0.95125  -0.18208
C          C       0.00758   0.34116   0.97394  -0.18224
C          C       0.66063   0.66617   0.96999  -0.18062
C          C       0.29916   0.99329   0.95876   0.08271
C          C       0.00927   0.30745   0.98258   0.08174
C          C       0.69464   0.70167   0.97921   0.08160
C          C       0.23001   0.88643   0.92248   0.05675
C          C       0.11615   0.34691   0.94469   0.05570
C          C       0.65513   0.76837   0.93324   0.05580
C          C       0.37292   0.96156   0.93813   0.05752
C          C       0.03852   0.41203   0.95182   0.05516
C          C       0.58929   0.62623   0.94725   0.05998
C          C       0.19462   0.88060   0.86126  -0.12107
C          C       0.12107   0.31756   0.87149  -0.12234
C          C       0.68381   0.80224   0.86499  -0.12182
C          C       0.16072   0.84635   0.88363  -0.18210
C          C       0.15544   0.31767   0.89196  -0.18110
C          C       0.68264   0.83598   0.88134  -0.17969
C          C       0.16133   0.81644   0.96557   0.20003
C          C       0.18637   0.34783   0.98373   0.20039
C          C       0.65240   0.83679   0.96614   0.19859
C          C       0.20058   0.82511   0.51908  -0.15421
C          C       0.17442   0.37555   0.53570  -0.15563
C          C       0.62212   0.79627   0.52580  -0.15374
C          C       0.23030   0.85591  -0.00011  -0.12818
C          C       0.14770   0.37766   0.03031  -0.12735
C          C       0.62437   0.76918   0.01224  -0.12523
C          C       0.37761   0.93602   0.51523  -0.12334
C          C       0.06173   0.44016   0.54022  -0.12471
C          C       0.55818   0.62052   0.53582  -0.12430
C          C       0.41197   0.93643   0.53500  -0.17019
C          C       0.06175   0.47437   0.55754  -0.16595
C          C       0.52393   0.58663   0.55366  -0.17237
C          C       0.44642   0.96733   0.48029   0.19683
C          C       0.03311   0.47874   0.47704   0.19361
C          C       0.51877   0.55204   0.48117   0.19519
C          C       0.44129   0.99247   0.88957  -0.14961
C          C       0.00520   0.44646   0.88936  -0.15083
C          C       0.55333   0.55742   0.89386  -0.14819
C          C       0.40636   0.99109   0.87003  -0.12737
C          C       0.00698   0.41303   0.88207  -0.12630
C          C       0.58692   0.59236   0.88211  -0.12595
C          C       0.48884   0.95098   0.60433   0.07204
C          C       0.05172   0.54047   0.58811   0.06653
C          C       0.46060   0.51001   0.60809   0.07238
N          N       0.84031   0.71775   0.12856  -0.27321
N          N       0.28604   0.12529   0.09559  -0.27079
N          N       0.87872   0.16088   0.08345  -0.27403
N          N       0.12898   0.78165  -0.00045  -0.27235
N          N       0.22148   0.34998   0.01557  -0.27127
N          N       0.64963   0.86951  -0.00264  -0.27718
N          N       0.48134   0.96997   0.99376  -0.30398
N          N       0.02970   0.51214   0.97387  -0.30037
N          N       0.48929   0.51809   0.98531  -0.30324
N          N       0.84233   0.71462   0.61608  -0.27196
N          N       0.28485   0.12751   0.58956  -0.27071
N          N       0.87142   0.15752   0.58361  -0.27146
N          N       0.13302   0.78383   0.49507  -0.27317
N          N       0.21499   0.34865   0.50728  -0.27385
N          N       0.64786   0.86316   0.49580  -0.27700
N          N       0.48259   0.97072   0.49721  -0.30552
N          N       0.02971   0.51161   0.48807  -0.30550
N          N       0.48587   0.51606   0.49489  -0.30453

