data_crystal

_audit_creation_method 'AiiDA-DDEC plugin'

_cell_length_a        25.51898
_cell_length_b        25.26492
_cell_length_c         4.56496

_cell_angle_alpha     87.96288
_cell_angle_beta     90.53321
_cell_angle_gamma     120.37101

_symmetry_space_group_name_Hall 'P 1'
_symmetry_space_group_name_H-M  'P 1'

loop_
_symmetry_equiv_pos_as_xyz
 'x,y,z'

loop_
_atom_site_label
_atom_site_type_symbol
_atom_site_fract_x
_atom_site_fract_y
_atom_site_fract_z
_atom_site_charge
H          H       0.99076   0.89591   0.48843   0.11316
H          H       0.09853   0.09256   0.48876   0.11291
H          H       0.90390   0.00340   0.52864   0.11234
H          H       0.82525   0.89692   0.77639   0.13553
H          H       0.09667   0.92436   0.76846   0.13583
H          H       0.06656   0.16739   0.80655   0.13653
H          H       0.82438   0.78371   0.91395   0.12880
H          H       0.20928   0.03810   0.86787   0.12803
H          H       0.95940   0.17778   0.91812   0.12727
H          H       0.92045   0.87662   0.05793   0.11497
H          H       0.11762   0.04185   0.02151   0.11410
H          H       0.95601   0.08019   0.06079   0.11687
H          H       0.65669   0.76346   0.46760   0.25641
H          H       0.23316   0.88997   0.48571   0.25892
H          H       0.10470   0.34116   0.50069   0.25728
H          H       0.60779   0.77192   0.80701   0.11632
H          H       0.22855   0.83154   0.83781   0.11725
H          H       0.16161   0.38931   0.84789   0.11577
H          H       0.51116   0.75679   0.00828   0.11194
H          H       0.24580   0.74972   0.03896   0.11116
H          H       0.24549   0.48590   0.03903   0.11156
H          H       0.41378   0.63308   0.32571   0.10927
H          H       0.36622   0.78139   0.32093   0.10984
H          H       0.22480   0.58712   0.32007   0.10830
H          H       0.42173   0.77191   0.78098   0.10810
H          H       0.22946   0.64532   0.78504   0.10881
H          H       0.35369   0.57800   0.77502   0.10837
H          H       0.58640   0.55775   0.33123   0.12374
H          H       0.44504   0.03637   0.31389   0.13868
H          H       0.96997   0.42168   0.33746   0.13380
H          H       0.54582   0.59218   0.21126   0.12011
H          H       0.40330   0.96107   0.21543   0.10620
H          H       0.04445   0.45384   0.22388   0.11171
H          H       0.50955   0.64733   0.12080   0.10682
H          H       0.35027   0.86356   0.11642   0.10644
H          H       0.14033   0.49142   0.12544   0.10627
H          H       0.38506   0.40274   0.97917   0.16134
H          H       0.51860   0.98829   0.02949   0.15960
H          H       0.00950   0.53501   0.97111   0.15382
H          H       0.44879   0.43214   0.21994   0.16746
H          H       0.57054   0.00772   0.32863   0.16829
H          H       0.96907   0.54408   0.26634   0.16911
H          H       0.39670   0.45925   0.23871   0.15729
H          H       0.56204   0.95152   0.07405   0.15805
H          H       0.00890   0.60479  -0.00355   0.16108
H          H       0.44617   0.47955   0.92532   0.15462
H          H       0.50258   0.93478   0.33233   0.15734
H          H       0.04996   0.58601   0.26095   0.15578
C          C       0.94070   0.94306   0.52282   0.07619
C          C       0.05103   0.99381   0.50390   0.07831
C          C       0.00159   0.05447   0.52707   0.08019
C          C       0.56997   0.60293   0.00443  -0.06689
C          C       0.39121   0.96752  -0.00682  -0.06835
C          C       0.03481   0.43312   0.01127  -0.06877
C          C       0.99389   0.94015   0.51384  -0.17078
C          C       0.05449   0.05069   0.51457  -0.17262
C          C       0.94508   0.00049   0.53754  -0.16973
C          C       0.56029   0.56884   0.77033  -0.04922
C          C       0.42596   0.99182   0.75402  -0.04468
C          C       0.01191   0.44512   0.77087  -0.04741
C          C       0.88225   0.88922   0.44711   0.07195
C          C       0.10461   0.98973   0.42174   0.07036
C          C       0.00495   0.11373   0.46003   0.06497
C          C       0.59633   0.56930   0.56474  -0.20301
C          C       0.42737   0.02900   0.53886  -0.20478
C          C       0.97444   0.41017   0.56735  -0.20616
C          C       0.82778   0.87074   0.59974  -0.25207
C          C       0.12274   0.95337   0.58253  -0.25136
C          C       0.03963   0.16662   0.62023  -0.25335
C          C       0.66427   0.61284   0.61373   0.33394
C          C       0.38152   0.05056   0.57441   0.32945
C          C       0.94935   0.34133   0.62151   0.33050
C          C       0.77365   0.82361   0.48863   0.23308
C          C       0.16927   0.94622   0.46861   0.23612
C          C       0.04555   0.22200   0.51570   0.23592
C          C       0.76881   0.79015   0.24393  -0.06065
C          C       0.20272   0.97532   0.21535  -0.06236
C          C       0.01775   0.22945   0.26682  -0.06262
C          C       0.82504   0.81142   0.09157  -0.07205
C          C       0.18195   0.01079   0.05520  -0.07080
C          C       0.98408   0.17488   0.10714  -0.07239
C          C       0.87960   0.85933   0.19246  -0.15590
C          C       0.13438   0.01746   0.15841  -0.15753
C          C       0.97793   0.11918   0.20317  -0.15361
C          C       0.71632   0.73536   0.12746   0.04141
C          C       0.25732   0.97731   0.10026   0.04287
C          C       0.01613   0.28374   0.15286   0.04172
C          C       0.65221   0.70727   0.17315   0.19187
C          C       0.28649   0.94239   0.16354   0.19245
C          C       0.05367   0.34795   0.19730   0.19014
C          C       0.67438   0.65927   0.82908   0.10813
C          C       0.33427   0.01291   0.79525   0.10981
C          C       0.98399   0.32906   0.84656   0.11362
C          C       0.56605   0.71248   0.44699   0.21205
C          C       0.28544   0.85166   0.45707   0.21165
C          C       0.14646   0.43296   0.46983   0.21293
C          C       0.56510   0.74106   0.70096  -0.21535
C          C       0.25882   0.82060   0.72150  -0.21241
C          C       0.17495   0.43277   0.73152  -0.21777
C          C       0.51044   0.72932   0.82939  -0.09759
C          C       0.27211   0.77767   0.85068  -0.09684
C          C       0.21933   0.48748   0.85389  -0.09631
C          C       0.45492   0.68818   0.69685   0.03057
C          C       0.31292   0.76448   0.70879   0.02702
C          C       0.23619   0.54399   0.70673   0.03097
C          C       0.45635   0.66130   0.43876  -0.13652
C          C       0.33849   0.79484   0.44263  -0.13026
C          C       0.20866   0.54372   0.44232  -0.13774
C          C       0.41917   0.44358   0.09084  -0.63257
C          C       0.53838   0.97058   0.19141  -0.63170
C          C       0.00941   0.56744   0.12400  -0.62863
C          C       0.51086   0.67328   0.30641  -0.16958
C          C       0.32509   0.83750   0.30991  -0.17001
C          C       0.16461   0.48924   0.31626  -0.16643
C          C       0.39483   0.67605   0.79639   0.07726
C          C       0.32438   0.71459   0.80247   0.07881
C          C       0.28556   0.60427   0.79987   0.07820
C          C       0.38369   0.72503   0.80582  -0.17246
C          C       0.27560   0.65380   0.80786  -0.17516
C          C       0.34548   0.61590   0.80219  -0.17307
N          N       0.62622   0.65962   0.98127  -0.02788
N          N       0.33440   0.96490   0.96536  -0.02628
N          N       0.03316   0.37613  -0.00053  -0.02530
N          N       0.72739   0.70499   0.91924  -0.28549
N          N       0.28782   0.01903   0.87859  -0.28724
N          N       0.97492   0.27464   0.94117  -0.28490
N          N       0.62448   0.73021   0.34101  -0.33105
N          N       0.26624   0.89228   0.35261  -0.33515
N          N       0.10483   0.37449   0.36712  -0.33181
O          O       0.70358   0.61408   0.45650  -0.33835
O          O       0.37984   0.08796   0.40116  -0.33981
O          O       0.91224   0.30286   0.45809  -0.33925
F          F       0.72344   0.81294   0.65226  -0.12943
F          F       0.18001   0.90635   0.63948  -0.13099
F          F       0.08151   0.27045   0.69333  -0.12526

