data_crystal

_audit_creation_method 'AiiDA-DDEC plugin'

_cell_length_a        24.93973
_cell_length_b        25.28722
_cell_length_c         7.99023

_cell_angle_alpha     96.89893
_cell_angle_beta     84.99069
_cell_angle_gamma     120.13895

_symmetry_space_group_name_Hall 'P 1'
_symmetry_space_group_name_H-M  'P 1'

loop_
_symmetry_equiv_pos_as_xyz
 'x,y,z'

loop_
_atom_site_label
_atom_site_type_symbol
_atom_site_fract_x
_atom_site_fract_y
_atom_site_fract_z
_atom_site_charge
H          H       0.99392   0.90648   0.05792   0.10751
H          H       0.09818   0.10271   0.05420   0.10794
H          H       0.89899   0.00891   0.05918   0.10819
H          H       0.83213   0.93074   0.23617   0.13477
H          H       0.07359   0.92277   0.19892   0.13558
H          H       0.08314   0.17081   0.21811   0.13595
H          H       0.81311   0.71638   0.44441   0.12508
H          H       0.26818   0.06969   0.50984   0.12324
H          H       0.91054   0.16009   0.45184   0.12414
H          H       0.91062   0.83850   0.90055   0.11249
H          H       0.16813   0.08484   0.92635   0.11204
H          H       0.92069   0.09206   0.91687   0.11497
H          H       0.66168   0.76049   0.40200   0.27276
H          H       0.24314   0.92468   0.33498   0.26414
H          H       0.10179   0.35348   0.32883   0.26979
H          H       0.58746   0.79142   0.46953   0.11500
H          H       0.21152   0.82516   0.38015   0.11908
H          H       0.20217   0.42873   0.37577   0.11795
H          H       0.48710   0.78081   0.40687   0.10279
H          H       0.22823   0.73663   0.33636   0.10812
H          H       0.28852   0.53136   0.32889   0.10536
H          H       0.45379   0.62979   0.03913   0.10396
H          H       0.39501   0.84110   0.04501   0.10530
H          H       0.17119   0.56406   0.04334   0.10425
H          H       0.42537   0.78912   0.20197   0.09928
H          H       0.23010   0.66024   0.16474   0.09965
H          H       0.35918   0.59600   0.18682   0.10097
H          H       0.55405   0.59926   0.36701   0.11236
H          H       0.41025   0.98557   0.35016   0.11419
H          H       0.04389   0.46146   0.38260   0.11749
H          H       0.55436   0.64100   0.09918   0.09189
H          H       0.37868   0.92973   0.08862   0.09242
H          H       0.08518   0.46075   0.08550   0.09917
H          H       0.52843   0.48861   0.32501   0.14238
H          H       0.52192   0.06562   0.30788   0.13614
H          H       0.96443   0.49352   0.36108   0.14368
H          H       0.68612   0.52251   0.52651   0.16301
H          H       0.46315   0.13647   0.58652   0.16431
H          H       0.84110   0.29066   0.50457   0.16361
H          H       0.99400   0.88528   0.55333   0.10638
H          H       0.09766   0.08169   0.55091   0.10750
H          H       0.89886   0.98588   0.52957   0.10482
H          H       0.83147   0.91244   0.69725   0.13724
H          H       0.06870   0.89968   0.70135   0.13621
H          H       0.08507   0.15458   0.68068   0.13649
H          H       0.81624   0.73921   0.94805   0.12451
H          H       0.26711   0.08899   0.96608   0.12629
H          H       0.92051   0.19027   0.96868   0.12339
H          H       0.91023   0.81313   0.39626   0.11426
H          H       0.17134   0.06647   0.45042   0.11400
H          H       0.91463   0.06388   0.40866   0.10775
H          H       0.65804   0.75110   0.85658   0.27238
H          H       0.23310   0.89522   0.85662   0.27223
H          H       0.07958   0.32302   0.84578   0.26721
H          H       0.58288   0.78099   0.90850   0.12165
H          H       0.20774   0.79876   0.92837   0.11558
H          H       0.18303   0.39455   0.89218   0.11663
H          H       0.47869   0.76210   0.85529   0.10503
H          H       0.22118   0.70822   0.87278   0.10341
H          H       0.27226   0.49666   0.85045   0.10667
H          H       0.43991   0.59487   0.55444   0.10449
H          H       0.37182   0.80365   0.52249   0.10303
H          H       0.16028   0.53566   0.56278   0.10382
H          H       0.41041   0.75714   0.67857   0.09933
H          H       0.21537   0.62733   0.69057   0.10087
H          H       0.34723   0.56558   0.69905   0.09879
H          H       0.55323   0.58913   0.88650   0.11325
H          H       0.39852   0.94290   0.84772   0.11192
H          H       0.01766   0.42568   0.88227   0.11252
H          H       0.54353   0.61317   0.60866   0.09330
H          H       0.35588   0.89269   0.56755   0.10715
H          H       0.07104   0.43431   0.60623   0.09174
H          H       0.52241   0.47750   0.84865   0.14485
H          H       0.51183   0.02022   0.81683   0.14656
H          H       0.93723   0.45518   0.84295   0.13866
H          H       0.70017   0.54420   0.03265   0.16456
H          H       0.46415   0.16448   0.03048   0.16333
H          H       0.84871   0.31976   0.07805   0.16513
C          C       0.93979   0.95107   0.05639   0.07722
C          C       0.05328   0.00438   0.05308   0.07967
C          C      -0.00098   0.06266   0.05443   0.07841
C          C       0.38730   0.74193   0.19030  -0.20351
C          C       0.27749   0.66940   0.16940  -0.19172
C          C       0.34974   0.63331   0.18183  -0.18900
C          C       0.99570   0.95020   0.05449  -0.17691
C          C       0.05396   0.06018   0.05252  -0.18113
C          C       0.94200   0.00757   0.05556  -0.18441
C          C       0.88054   0.89289   0.06804   0.09132
C          C       0.11206   0.00410   0.06109   0.08773
C          C       0.00121   0.12237   0.06530   0.08802
C          C       0.58425   0.58442   0.29797   0.00619
C          C       0.42464   0.02419   0.27686   0.01355
C          C       0.00094   0.43276   0.31702   0.00861
C          C       0.83013   0.88995   0.16784  -0.27037
C          C       0.11467   0.95911   0.14120  -0.26865
C          C       0.04797   0.17377   0.15521  -0.26534
C          C       0.57099   0.52456   0.27177  -0.23019
C          C       0.48532   0.06831   0.25204  -0.23363
C          C       0.95719   0.44947   0.30284  -0.23078
C          C       0.77753   0.83351   0.18952   0.24314
C          C       0.17120   0.96279   0.16122   0.23962
C          C       0.04752   0.22869   0.17832   0.23669
C          C       0.60195   0.49291   0.68140   0.15229
C          C       0.49443   0.08303   0.69710   0.14889
C          C       0.88541   0.37551   0.66568   0.15159
C          C       0.77068   0.77716   0.11761  -0.05321
C          C       0.22844   0.00963   0.10348  -0.05164
C          C       0.00138   0.23714   0.11750  -0.04988
C          C       0.65626   0.53541   0.60625  -0.26497
C          C       0.45065   0.09525   0.64625  -0.26564
C          C       0.87928   0.32130   0.58614  -0.26713
C          C       0.82074   0.78187   0.00983  -0.08883
C          C       0.22397   0.05280   0.01621  -0.08833
C          C       0.95641   0.18525   0.02038  -0.08734
C          C       0.87380   0.83756   0.98589  -0.15591
C          C       0.16830   0.05057  -0.00396  -0.15650
C          C       0.95606   0.12986   0.99452  -0.15292
C          C       0.72060   0.71526   0.15036   0.06658
C          C       0.29129   0.02199   0.13158   0.05997
C          C       0.99111   0.28972   0.15334   0.06683
C          C       0.66340   0.69303   0.24083   0.13511
C          C       0.31431   0.99031   0.20846   0.14947
C          C       0.02816   0.34958   0.22850   0.14889
C          C       0.67323   0.59795   0.63195   0.28502
C          C       0.38734   0.05185   0.66819   0.28663
C          C       0.92407   0.30504   0.61335   0.29595
C          C       0.57727   0.71563   0.29179   0.22796
C          C       0.29468   0.88487   0.24109   0.22324
C          C       0.13648   0.43767   0.23925   0.22066
C          C       0.55835   0.75618   0.37434  -0.19822
C          C       0.25146   0.82864   0.30446  -0.19701
C          C       0.19559   0.45796   0.30018  -0.18864
C          C       0.50184   0.75020   0.33810  -0.11680
C          C       0.26089   0.77848   0.27847  -0.10741
C          C       0.24445   0.51594   0.27198  -0.11692
C          C       0.46195   0.70368   0.22086   0.03396
C          C       0.31361   0.78191   0.18932   0.03496
C          C       0.23680   0.55676   0.18491   0.03639
C          C       0.48217   0.66448   0.13653  -0.10896
C          C       0.35508   0.83747   0.12096  -0.10912
C          C       0.17822   0.53523   0.11919  -0.11177
C          C       0.53884   0.67041   0.17035  -0.21835
C          C       0.34588   0.88790   0.14493  -0.21816
C          C       0.12898   0.47655   0.14377  -0.21236
C          C       0.39956   0.69362   0.19344   0.08413
C          C       0.32630   0.73040   0.17832   0.08068
C          C       0.28833   0.62020   0.17346   0.08686
C          C       0.93981   0.92895   0.53731   0.07681
C          C       0.05297   0.98351   0.55202   0.07573
C          C       0.99857   0.04086   0.53748   0.08074
C          C       0.37275   0.70990   0.67913  -0.18852
C          C       0.26310   0.63689   0.68593  -0.19439
C          C       0.33701   0.60218   0.69004  -0.19776
C          C       0.99566   0.92874   0.54597  -0.18396
C          C       0.05355   0.03902   0.54543  -0.17555
C          C       0.94202   0.98524   0.53281  -0.17981
C          C       0.88005   0.87116   0.54593   0.08993
C          C       0.11125   0.98378   0.57423   0.08488
C          C      -0.00092   0.09977   0.54449   0.08488
C          C       0.58009   0.57201   0.80893   0.00693
C          C       0.41524   0.98597   0.79367   0.00164
C          C       0.97897   0.39889   0.79943   0.01946
C          C       0.82894   0.87059   0.63563  -0.26632
C          C       0.11128   0.93722   0.65339  -0.26569
C          C       0.04652   0.15381   0.62450  -0.26397
C          C       0.56389   0.51130   0.78561  -0.23284
C          C       0.47677   0.02844   0.77377  -0.23289
C          C       0.93496   0.41426   0.77521  -0.23301
C          C       0.77474   0.81566   0.65763   0.23811
C          C       0.16652   0.93932   0.67982   0.23936
C          C       0.04358   0.20755   0.64281   0.23692
C          C       0.61332   0.50982   0.17633   0.15353
C          C       0.49999   0.11899   0.16060   0.15505
C          C       0.90245   0.40903   0.21286   0.14749
C          C       0.76687   0.75787   0.59664  -0.05208
C          C       0.22526   0.98706   0.63439  -0.05003
C          C       0.99417   0.21206   0.58803  -0.04398
C          C       0.66767   0.55463   0.10776  -0.26338
C          C       0.45409   0.12554   0.09774  -0.27071
C          C       0.89049   0.35140   0.14615  -0.26694
C          C       0.81806   0.76006   0.49851  -0.08250
C          C       0.22377   0.03262   0.55071  -0.09295
C          C       0.94855   0.15776   0.50066  -0.08834
C          C       0.87269   0.81446   0.47345  -0.15511
C          C       0.16912   0.03106   0.52039  -0.15302
C          C       0.95078   0.10370   0.47891  -0.15197
C          C       0.71531   0.69706   0.63310   0.06571
C          C       0.28671   0.99696   0.66769   0.06048
C          C       0.98229   0.26378   0.61899   0.05802
C          C       0.65876   0.67776   0.72575   0.14178
C          C       0.30658   0.96100   0.73577   0.14270
C          C       0.01327   0.32107   0.71369   0.15301
C          C       0.68139   0.61621   0.13599   0.28979
C          C       0.39173   0.08013   0.12326   0.28758
C          C       0.93477   0.33355   0.16369   0.28596
C          C       0.57097   0.69820   0.76293   0.22643
C          C       0.28245   0.85343   0.75749   0.22213
C          C       0.11951   0.40787   0.75903   0.22373
C          C       0.55209   0.74071   0.82787  -0.19288
C          C       0.24294   0.79947   0.83652  -0.19445
C          C       0.17794   0.42551   0.81988  -0.19800
C          C       0.49325   0.72998   0.79704  -0.11191
C          C       0.25070   0.74848   0.80489  -0.11481
C          C       0.22849   0.48318   0.79443  -0.11387
C          C       0.45067   0.67662   0.70228   0.04047
C          C       0.29873   0.74939   0.69647   0.03552
C          C       0.22309   0.52541   0.70751   0.03242
C          C       0.47079   0.63558   0.63350  -0.11282
C          C       0.33638   0.80265   0.61382  -0.11322
C          C       0.16524   0.50576   0.63973  -0.10862
C          C       0.52968   0.64600   0.66285  -0.21928
C          C       0.32793   0.85360   0.64060  -0.21023
C          C       0.11430   0.44824   0.66449  -0.22543
C          C       0.38634   0.66275   0.68560   0.08251
C          C       0.31132   0.69782   0.68190   0.08718
C          C       0.27503   0.58839   0.69088   0.08213
N          N       0.63871   0.62959   0.23203  -0.00893
N          N       0.37850   0.02848   0.20732  -0.01164
N          N       0.99117   0.37673   0.24196  -0.03636
N          N       0.72271   0.64718   0.57675  -0.39709
N          N       0.33718   0.05232   0.62786  -0.39962
N          N       0.92796   0.25538   0.55852  -0.39611
N          N       0.63284   0.72022   0.33673  -0.37965
N          N       0.28573   0.93553   0.28356  -0.37459
N          N       0.08811   0.38078   0.28517  -0.36401
N          N       0.63302   0.61461   0.72951  -0.01041
N          N       0.37103   0.99665   0.73820  -0.01381
N          N       0.97496   0.34642   0.71450  -0.03027
N          N       0.73039   0.66728   0.08791  -0.39957
N          N       0.33982   0.07673   0.08082  -0.39636
N          N       0.93445   0.28143   0.11325  -0.39613
N          N       0.62869   0.70771   0.80820  -0.37904
N          N       0.27528   0.90499   0.80431  -0.36901
N          N       0.06797   0.35184   0.80172  -0.37771
Cl         Cl      0.57836   0.41517   0.64912  -0.09040
Cl         Cl      0.57286   0.13322   0.65996  -0.08497
Cl         Cl      0.83168   0.39761   0.63409  -0.08267
Cl         Cl      0.59474   0.43340   0.14519  -0.08494
Cl         Cl      0.57750   0.17389   0.13202  -0.08924
Cl         Cl      0.85139   0.43456   0.18138  -0.08807
F          F       0.73080   0.83482   0.29215  -0.15314
F          F       0.16813   0.91743   0.24955  -0.15214
F          F       0.09518   0.27479   0.27495  -0.15033
F          F       0.72805   0.82127   0.75009  -0.15383
F          F       0.16017   0.89067   0.75860  -0.15529
F          F       0.09250   0.25771   0.72470  -0.15090

