data_crystal

_audit_creation_method 'AiiDA-DDEC plugin'

_cell_length_a        25.04867
_cell_length_b        24.97780
_cell_length_c         8.15644

_cell_angle_alpha     86.32358
_cell_angle_beta     92.17140
_cell_angle_gamma     120.02685

_symmetry_space_group_name_Hall 'P 1'
_symmetry_space_group_name_H-M  'P 1'

loop_
_symmetry_equiv_pos_as_xyz
 'x,y,z'

loop_
_atom_site_label
_atom_site_type_symbol
_atom_site_fract_x
_atom_site_fract_y
_atom_site_fract_z
_atom_site_charge
H          H       0.00896   0.90462   0.27824   0.10434
H          H       0.09800   0.10312   0.28015   0.10461
H          H       0.90060   0.99368   0.27910   0.10481
H          H       0.82970   0.90545   0.37938   0.13509
H          H       0.09436   0.91686   0.38068   0.13540
H          H       0.08042   0.17275   0.38934   0.13670
H          H       0.83950   0.74170   0.09437   0.12382
H          H       0.26517   0.10340   0.10608   0.12442
H          H       0.90082   0.16255   0.08547   0.12861
H          H       0.93554   0.84057   0.13683   0.11056
H          H       0.16666   0.10020   0.14884   0.11026
H          H       0.90794   0.06762   0.13126   0.11166
H          H       0.67088   0.77257   0.99524   0.26590
H          H       0.22936   0.90172   0.01085   0.26183
H          H       0.09316   0.32946   0.99461   0.26512
H          H       0.59377   0.79945   0.93429   0.11491
H          H       0.20069   0.79965   0.95967   0.11518
H          H       0.19898   0.40255   0.95676   0.11560
H          H       0.48696   0.77620   0.97066   0.10405
H          H       0.22274   0.71396   0.99142   0.10541
H          H       0.28597   0.50715  -0.00243   0.10527
H          H       0.45124   0.61911   0.29333   0.10420
H          H       0.37732   0.82165   0.30469   0.10667
H          H       0.16942   0.54809   0.27605   0.10305
H          H       0.41638   0.77394   0.14788   0.10002
H          H       0.22362   0.63804   0.15270   0.09992
H          H       0.35930   0.58090   0.13972   0.10003
H          H       0.55157   0.61575   0.97370   0.12446
H          H       0.38309   0.93446   0.98274   0.12168
H          H       0.05408   0.45050   0.94792   0.12529
H          H       0.55873   0.64319   0.25941   0.09412
H          H       0.35551   0.90779   0.27279   0.09761
H          H       0.08197   0.44388   0.23089   0.09327
H          H       0.70619   0.53090   0.57415   0.14520
H          H       0.45920   0.17283   0.57578   0.14513
H          H       0.83480   0.30667   0.54422   0.14495
H          H       0.58578   0.43190   0.29858   0.13336
H          H       0.58790   0.15728   0.47691   0.13324
H          H       0.86272   0.45686   0.41107   0.13412
H          H       0.56775   0.40260   0.50416   0.13721
H          H       0.55821   0.20921   0.45724   0.13735
H          H       0.80721   0.37625   0.40525   0.13639
H          H       0.64538   0.43710   0.43530   0.13696
H          H       0.55428   0.16493   0.28928   0.13497
H          H       0.85578   0.41680   0.23359   0.13502
H          H       0.00290   0.90115   0.76990   0.10271
H          H       0.09017   0.09880   0.77964   0.10384
H          H       0.89280   0.98893   0.76171   0.10481
H          H       0.81880   0.89938   0.84175   0.13612
H          H       0.08815   0.91213   0.86418   0.13623
H          H       0.07582   0.16867   0.87162   0.13606
H          H       0.83961   0.73401   0.60149   0.12426
H          H       0.25893   0.10387   0.61001   0.12494
H          H       0.89480   0.16236   0.58866   0.12507
H          H       0.93270   0.83454   0.64309   0.11020
H          H       0.15896   0.09769   0.64908   0.10979
H          H       0.89872   0.06586   0.63167   0.11105
H          H       0.66729   0.75933   0.49812   0.26302
H          H       0.23390   0.90501   0.53176   0.26266
H          H       0.09594   0.33144   0.51418   0.26598
H          H       0.59801   0.79465   0.46553   0.11732
H          H       0.20208   0.80360   0.50525   0.11711
H          H       0.19996   0.40497   0.47524   0.11750
H          H       0.49472   0.77904   0.51191   0.10630
H          H       0.22219   0.71706   0.53586   0.10736
H          H       0.28613   0.50974   0.51302   0.10673
H          H       0.44373   0.60530   0.77404   0.09885
H          H       0.39420   0.83328   0.77971   0.09956
H          H       0.16697   0.55307   0.77175   0.10393
H          H       0.42193   0.77472   0.66277   0.09795
H          H       0.22730   0.64501   0.66621   0.09831
H          H       0.35646   0.58006   0.65202   0.09844
H          H       0.54936   0.59525   0.46280   0.12721
H          H       0.39447   0.95427   0.47570   0.12163
H          H       0.05793   0.45222   0.44831   0.12439
H          H       0.54580   0.61956   0.72178   0.08929
H          H       0.37540   0.92036   0.74267   0.09107
H          H       0.08031   0.44882   0.72821   0.09395
H          H       0.69837   0.53817   0.08044   0.14521
H          H       0.46722   0.15862   0.05803   0.14444
H          H       0.83265   0.29933   0.05089   0.14584
H          H       0.55104   0.41530   0.98563   0.13281
H          H       0.58615   0.12922   0.97686   0.13361
H          H       0.85396   0.44698   0.91921   0.13384
H          H       0.63124   0.44352   0.95523   0.13718
H          H       0.56222   0.18487   0.92869   0.13646
H          H       0.80124   0.36586   0.90940   0.13646
H          H       0.58493   0.45040   0.79325   0.13042
H          H       0.55614   0.13297   0.77936   0.13327
H          H       0.84963   0.40919   0.73935   0.13442
C          C       0.94817   0.94195   0.28089   0.07823
C          C       0.06099   0.00423   0.28267   0.07691
C          C      -0.00110   0.05488   0.28341   0.07726
C          C       0.00637   0.94664   0.28271  -0.17895
C          C       0.05638   0.05796   0.28428  -0.18079
C          C       0.94534   0.99652   0.28388  -0.17829
C          C       0.58204   0.59691   0.99342  -0.07767
C          C       0.40319   0.98376   0.99443  -0.07666
C          C       0.00523   0.41874   0.96396  -0.07741
C          C       0.89132   0.88179   0.26140   0.08962
C          C       0.12139   0.00811   0.26616   0.09023
C          C       0.99425   0.11168   0.26501   0.08922
C          C       0.56791   0.53889   0.95233  -0.00304
C          C       0.46188   0.02688   0.94758  -0.00246
C          C       0.95985   0.43136   0.91156  -0.00055
C          C       0.83377   0.87162   0.31171  -0.26933
C          C       0.13000   0.95804   0.31598  -0.27089
C          C       0.04097   0.16891   0.31932  -0.26990
C          C       0.61572   0.50246   0.47333   0.11688
C          C       0.48849   0.11322   0.47955   0.11893
C          C       0.90062   0.39574   0.43548   0.11675
C          C       0.78056   0.81686   0.27802   0.23370
C          C       0.18527   0.96073   0.28455   0.23324
C          C       0.03692   0.22188   0.28384   0.23563
C          C       0.67063   0.54316   0.54841  -0.23470
C          C       0.44741   0.12564   0.55414  -0.23496
C          C       0.88317   0.33973   0.52094  -0.23861
C          C       0.78009   0.76815   0.20129  -0.04321
C          C       0.23568   0.01193   0.20815  -0.04397
C          C       0.98690   0.22188   0.20151  -0.04512
C          C       0.83853   0.77852   0.15597  -0.08367
C          C       0.22695   0.06278   0.16554  -0.08210
C          C       0.93971   0.16367   0.15235  -0.08750
C          C       0.89231   0.83377   0.18283  -0.15459
C          C       0.17159   0.06078   0.19173  -0.15327
C          C       0.94360   0.11047   0.18100  -0.15331
C          C       0.72618   0.70890   0.16298   0.06489
C          C       0.29437   0.01705   0.16549   0.06750
C          C       0.97913   0.27532   0.15763   0.06821
C          C       0.66719   0.69554   0.10730   0.14242
C          C       0.30620   0.97137   0.11390   0.14262
C          C       0.02276   0.33465   0.09574   0.14112
C          C       0.68375   0.60263   0.58727   0.28159
C          C       0.38775   0.07824   0.59760   0.28127
C          C       0.92666   0.32200   0.57228   0.28213
C          C       0.58352   0.72206   0.09334   0.22912
C          C       0.27752   0.86053   0.11163   0.22712
C          C       0.13382   0.41618   0.08919   0.23133
C          C       0.60319   0.44016   0.42548  -0.42597
C          C       0.55067   0.16414   0.42354  -0.42502
C          C       0.85381   0.41222   0.36862  -0.42596
C          C       0.56292   0.76037   0.01500  -0.20295
C          C       0.23897   0.80433   0.03723  -0.20078
C          C       0.19263   0.43420   0.02858  -0.20170
C          C       0.50252   0.74705   0.03586  -0.11306
C          C       0.25146   0.75598   0.05595  -0.11212
C          C       0.24175   0.49334   0.05274  -0.11138
C          C       0.46023   0.69513   0.13237   0.03599
C          C       0.30248   0.76141   0.14785   0.03544
C          C       0.23473   0.53675   0.13765   0.03216
C          C       0.48189   0.65818   0.21243  -0.10922
C          C       0.33910   0.81680   0.22677  -0.11199
C          C       0.17627   0.51701   0.20329  -0.10974
C          C       0.54241   0.67154   0.19449  -0.21116
C          C       0.32670   0.86540   0.21039  -0.20616
C          C       0.12670   0.45807   0.17945  -0.21908
C          C       0.39519   0.67918   0.14525   0.08461
C          C       0.31803   0.71159   0.15347   0.08481
C          C       0.28533   0.60139   0.14884   0.08392
C          C       0.37973   0.72580   0.15009  -0.19420
C          C       0.27155   0.64930   0.15311  -0.19330
C          C       0.34755   0.61716   0.14596  -0.19401
C          C       0.94084   0.93733   0.76837   0.07705
C          C       0.05373   0.00032   0.77725   0.07656
C          C       0.99096   0.05051   0.77387   0.07689
C          C      -0.00060   0.94264   0.77418  -0.17818
C          C       0.04856   0.05369   0.77974  -0.17698
C          C       0.93758   0.99186   0.76998  -0.18004
C          C       0.58261   0.57982   0.48214  -0.07944
C          C       0.41057   0.00244   0.49543  -0.07869
C          C       0.00885   0.42158   0.46321  -0.07860
C          C       0.88482   0.87632   0.74716   0.08963
C          C       0.11457   0.00491   0.76156   0.09168
C          C       0.98724   0.10801   0.75591   0.08932
C          C       0.57192   0.52273   0.44260   0.00044
C          C       0.46807   0.04986   0.45262   0.00125
C          C       0.96506   0.43612   0.40851  -0.00083
C          C       0.82561   0.86510   0.78471  -0.26983
C          C       0.12394   0.95485   0.80546  -0.26893
C          C       0.03589   0.16522   0.80508  -0.26803
C          C       0.60879   0.51492   0.98114   0.11849
C          C       0.48770   0.09160   0.96791   0.11676
C          C       0.89582   0.38930   0.94022   0.11653
C          C       0.77395   0.80890   0.75062   0.23295
C          C       0.18004   0.95908   0.77446   0.23001
C          C       0.03357   0.21916   0.77052   0.23436
C          C       0.66459   0.55297   0.05670  -0.23711
C          C       0.45081   0.10995   0.04113  -0.24131
C          C       0.88052   0.33405   0.02706  -0.23695
C          C       0.77607   0.75931   0.68678  -0.04430
C          C       0.23096   0.01197   0.70555  -0.04290
C          C       0.98346   0.22089   0.69379  -0.04503
C          C       0.83610   0.77107   0.65367  -0.08216
C          C       0.22082   0.06218   0.66585  -0.08375
C          C       0.93424   0.16271   0.65010  -0.08221
C          C       0.88839   0.82758   0.68040  -0.15302
C          C       0.16471   0.05867   0.69088  -0.15252
C          C       0.93632   0.10839   0.67786  -0.15493
C          C       0.72406   0.69844   0.64905   0.06755
C          C       0.29189   0.02103   0.66822   0.06353
C          C       0.97764   0.27568   0.65140   0.06552
C          C       0.66377   0.68109   0.59431   0.14549
C          C       0.30984   0.97927   0.61864   0.14919
C          C       0.02276   0.33577   0.59696   0.14439
C          C       0.68123   0.61327   0.09739   0.28034
C          C       0.38998   0.06696   0.08933   0.28113
C          C       0.92576   0.31882   0.07841   0.28484
C          C       0.57965   0.70814   0.59024   0.23377
C          C       0.28746   0.86888   0.62045   0.23184
C          C       0.13350   0.41927   0.59850   0.22804
C          C       0.59321   0.45250   0.92670  -0.42480
C          C       0.55161   0.13742   0.91062  -0.42569
C          C       0.84729   0.40346   0.87424  -0.42522
C          C       0.56442   0.75346   0.53530  -0.19789
C          C       0.24399   0.80999   0.56713  -0.19778
C          C       0.19286   0.43716   0.54243  -0.19833
C          C       0.50598   0.74447   0.56220  -0.11157
C          C       0.25542   0.76101   0.58598  -0.11012
C          C       0.24161   0.49654   0.56515  -0.11206
C          C       0.46027   0.69051   0.64506   0.03801
C          C       0.31006   0.76768   0.65980   0.03627
C          C       0.23398   0.54064   0.64498   0.03619
C          C       0.47686   0.64673   0.70422  -0.10953
C          C       0.35211   0.82612   0.71729  -0.10984
C          C       0.17478   0.52148   0.70411  -0.10911
C          C       0.53515   0.65495   0.67689  -0.22165
C          C       0.34136   0.87586   0.69823  -0.21539
C          C       0.12547   0.46218   0.68148  -0.21537
C          C       0.39662   0.67871   0.66000   0.08367
C          C       0.32301   0.71593   0.66741   0.08408
C          C       0.28558   0.60464   0.65995   0.08345
C          C       0.38388   0.72726   0.66499  -0.19514
C          C       0.27459   0.65434   0.66643  -0.19042
C          C       0.34694   0.61779   0.65873  -0.19185
Br         Br      0.48902   0.48965   0.84877  -0.05183
Br         Br      0.50983   0.99585   0.85339  -0.05505
Br         Br      0.98572   0.50931   0.79263  -0.05916
Br         Br      0.49391   0.46909   0.34121  -0.06337
Br         Br      0.52200   0.02777   0.35152  -0.06121
Br         Br      0.99427   0.51471   0.29014  -0.05895
N          N       0.63848   0.63396   0.06451  -0.01667
N          N       0.36758   0.00371   0.06407  -0.01952
N          N       0.98820   0.36250   0.04425  -0.01675
N          N       0.73401   0.65829   0.15557  -0.40281
N          N       0.34595   0.07509   0.14934  -0.40425
N          N       0.92023   0.26637   0.14640  -0.40325
N          N       0.64354   0.73441   0.06768  -0.36683
N          N       0.26655   0.90992   0.08238  -0.36720
N          N       0.08391   0.35842   0.05404  -0.36750
N          N       0.63822   0.61966   0.55335  -0.01398
N          N       0.37098   0.01639   0.56995  -0.01386
N          N       0.98977   0.36497   0.54399  -0.01524
N          N       0.73517   0.64981   0.64407  -0.40123
N          N       0.34033   0.08107   0.65523  -0.39976
N          N       0.91933   0.26834   0.63615  -0.40151
N          N       0.63724   0.71696   0.54934  -0.36604
N          N       0.27493   0.91713   0.58832  -0.36799
N          N       0.08475   0.36064   0.56463  -0.36417
F          F       0.72562   0.81082   0.32783  -0.14706
F          F       0.18938   0.90918   0.33574  -0.14565
F          F       0.08517   0.27703   0.33597  -0.14760
F          F       0.71741   0.80273   0.78406  -0.14638
F          F       0.18409   0.90664   0.81615  -0.14660
F          F       0.08452   0.27378   0.81634  -0.14981

