data_crystal

_audit_creation_method 'AiiDA-DDEC plugin'

_cell_length_a        25.05165
_cell_length_b        25.30305
_cell_length_c         8.00387

_cell_angle_alpha     98.59224
_cell_angle_beta     87.69833
_cell_angle_gamma     120.73149

_symmetry_space_group_name_Hall 'P 1'
_symmetry_space_group_name_H-M  'P 1'

loop_
_symmetry_equiv_pos_as_xyz
 'x,y,z'

loop_
_atom_site_label
_atom_site_type_symbol
_atom_site_fract_x
_atom_site_fract_y
_atom_site_fract_z
_atom_site_charge
H          H       0.00532   0.89410   0.05234   0.10774
H          H       0.10960   0.09248   0.06263   0.10652
H          H       0.91008   0.99476   0.05507   0.10598
H          H       0.84991   0.92381   0.22769   0.13359
H          H       0.08304   0.90762   0.17920   0.13621
H          H       0.09943   0.16711   0.20813   0.13615
H          H       0.80164   0.72609   0.49061   0.12450
H          H       0.25315   0.08183   0.46664   0.12338
H          H       0.90950   0.17510   0.40925   0.12378
H          H       0.91436   0.81962   0.89306   0.11143
H          H       0.18263   0.07944   0.97080   0.11445
H          H       0.92408   0.07001   0.92330   0.10919
H          H       0.67926   0.76135   0.38164   0.26613
H          H       0.24671   0.90170   0.32138   0.27180
H          H       0.10023   0.34211   0.36899   0.27310
H          H       0.60601   0.79320   0.44158   0.11739
H          H       0.21849   0.80330   0.36562   0.11849
H          H       0.20539   0.41703   0.42151   0.11334
H          H       0.50166   0.77573   0.38287   0.10508
H          H       0.23563   0.71527   0.31737   0.10631
H          H       0.29504   0.51672   0.36624   0.10174
H          H       0.45769   0.61058   0.03719   0.10282
H          H       0.39283   0.81722   0.02122   0.10226
H          H       0.17723   0.54271   0.05369   0.10423
H          H       0.43104   0.77112   0.17709   0.09892
H          H       0.23550   0.63787   0.16815   0.10131
H          H       0.36794   0.57977   0.20392   0.09817
H          H       0.58074   0.45341   0.68778   0.10860
H          H       0.54090   0.15132   0.65007   0.10756
H          H       0.84235   0.40030   0.61851   0.10673
H          H       0.57214   0.60053   0.38304   0.10227
H          H       0.41156   0.95407   0.35355   0.10880
H          H       0.04459   0.44822   0.37359   0.11008
H          H       0.56158   0.62737   0.09665   0.08941
H          H       0.37376   0.90414   0.06028   0.10585
H          H       0.08880   0.44276   0.10185   0.09712
H          H       0.53768   0.48713   0.33502   0.12083
H          H       0.52474   0.03136   0.34083   0.12273
H          H       0.96348   0.47574   0.33198   0.12190
H          H       0.68414   0.53431   0.59594   0.13977
H          H       0.45382   0.16041   0.54034   0.13662
H          H       0.83096   0.29905   0.48102   0.13849
H          H       0.98312   0.89946   0.58028   0.10785
H          H       0.08578   0.09526   0.55214   0.10862
H          H       0.88666  -0.00125   0.56448   0.11005
H          H       0.82436   0.92733   0.74301   0.13565
H          H       0.06757   0.91999   0.71063   0.13393
H          H       0.06877   0.16683   0.72959   0.13622
H          H       0.81759   0.72255   0.93751   0.12513
H          H       0.28016   0.08208   0.02331   0.12410
H          H       0.92181   0.16763   0.96438   0.12334
H          H       0.89554   0.82345   0.43691   0.11523
H          H       0.15257   0.07546   0.43252   0.10896
H          H       0.90994   0.07645   0.37939   0.11133
H          H       0.64997   0.76220   0.88036   0.27448
H          H       0.23910   0.92463   0.83362   0.26180
H          H       0.08007   0.34767   0.83200   0.26510
H          H       0.57644   0.78891   0.95032   0.11870
H          H       0.20928   0.82819   0.89269   0.11577
H          H       0.18488   0.41731   0.85095   0.11999
H          H       0.47473   0.77609   0.88341   0.10047
H          H       0.22140   0.73679   0.85096   0.10609
H          H       0.27250   0.51944   0.80958   0.10742
H          H       0.43261   0.61695   0.51349   0.10346
H          H       0.37588   0.82873   0.53689   0.10691
H          H       0.14837   0.55853   0.57095   0.10411
H          H       0.41047   0.77989   0.68170   0.09970
H          H       0.21358   0.65339   0.68657   0.09885
H          H       0.34006   0.58531   0.67046   0.09932
H          H       0.59811   0.45009   0.14494   0.10620
H          H       0.55848   0.12771   0.21096   0.10805
H          H       0.86873   0.40085   0.14419   0.10902
H          H       0.53483   0.59684   0.83949   0.11099
H          H       0.40513   0.98326   0.84328   0.10905
H          H       0.01294   0.44533   0.87574   0.11334
H          H       0.53569   0.63192   0.57065   0.09886
H          H       0.36365   0.91993   0.57665   0.09509
H          H       0.06067   0.45784   0.61841   0.09059
H          H       0.50578   0.48529   0.81117   0.12055
H          H       0.51598   0.06339   0.80909   0.12097
H          H       0.93244   0.47256   0.82401   0.12035
H          H       0.69450   0.52779   0.01637   0.13605
H          H       0.47759   0.14696   0.10597   0.14059
H          H       0.85441   0.29777   0.01217   0.14009
C          C       0.95102   0.93783   0.05146   0.07930
C          C       0.06485   0.99339   0.05810   0.07398
C          C       0.01013   0.05040   0.05636   0.07874
C          C       0.39308   0.72340   0.17475  -0.19545
C          C       0.28335   0.64850   0.17069  -0.18763
C          C       0.35738   0.61570   0.19094  -0.20098
C          C       0.00709   0.93791   0.05185  -0.18286
C          C       0.06539   0.04912   0.05821  -0.17981
C          C       0.95329   0.99435   0.05316  -0.17796
C          C       0.89115   0.87983   0.05996   0.08911
C          C       0.12373   0.99407   0.07399   0.08779
C          C       0.01089   0.10941   0.06595   0.08544
C          C       0.59583   0.58130   0.30266  -0.00642
C          C       0.42883   0.99641   0.29940  -0.01543
C          C       0.00195   0.41756   0.29804  -0.01621
C          C       0.84386   0.88065   0.15825  -0.27035
C          C       0.12486   0.94610   0.13824  -0.26432
C          C       0.06008   0.16535   0.14948  -0.26679
C          C       0.57816   0.51966   0.27309  -0.16247
C          C       0.49052   0.03959   0.28999  -0.15836
C          C       0.95709   0.43140   0.27102  -0.16244
C          C       0.78997   0.82553   0.17944   0.24196
C          C       0.18021   0.94757   0.15846   0.23691
C          C       0.05813   0.21964   0.16618   0.23720
C          C       0.59345   0.50191   0.70160  -0.09626
C          C       0.49277   0.11686   0.66711  -0.09502
C          C       0.87693   0.38830   0.64320  -0.09717
C          C       0.77909   0.76656   0.10724  -0.05189
C          C       0.23867   0.99675   0.12475  -0.04828
C          C       0.00799   0.22276   0.10712  -0.04445
C          C       0.65038   0.54586   0.65125  -0.18543
C          C       0.44543   0.12225   0.60523  -0.18815
C          C       0.87029   0.33252   0.56617  -0.19311
C          C       0.82592   0.76741   0.00036  -0.08449
C          C       0.23611   0.04392   0.05578  -0.09194
C          C       0.96035   0.16629   0.01691  -0.08839
C          C       0.88017   0.82185   0.97727  -0.15648
C          C       0.18105   0.04262   0.02957  -0.15380
C          C       0.96152   0.11158  -0.00334  -0.15113
C          C       0.72853   0.70537   0.13916   0.06451
C          C       0.30059   0.00655   0.15729   0.06510
C          C       0.99755   0.27538   0.13496   0.06015
C          C       0.67458   0.68688   0.23274   0.14267
C          C       0.32051   0.97020   0.22148   0.15271
C          C       0.03157   0.33575   0.22714   0.14181
C          C       0.66631   0.60855   0.66986   0.26771
C          C       0.38324   0.07671   0.62609   0.26759
C          C       0.91593   0.31791   0.59767   0.26790
C          C       0.59055   0.71042   0.27656   0.22674
C          C       0.29705   0.86183   0.22531   0.22295
C          C       0.13965   0.42382   0.27255   0.22732
C          C       0.57366   0.75335   0.35185  -0.19712
C          C       0.25615   0.80612   0.28729  -0.19323
C          C       0.19926   0.44452   0.34024  -0.20012
C          C       0.51498   0.74360   0.31731  -0.11577
C          C       0.26588   0.75629   0.25906  -0.11401
C          C       0.24980   0.50078   0.30801  -0.11398
C          C       0.47117   0.69104   0.20818   0.03716
C          C       0.31712   0.75992   0.17074   0.03603
C          C       0.24315   0.53886   0.20951   0.03031
C          C       0.48977   0.65013   0.12816  -0.11425
C          C       0.35518   0.81423   0.09978  -0.11484
C          C       0.18377   0.51636   0.13801  -0.10720
C          C       0.54833   0.65945   0.16120  -0.22132
C          C       0.34497   0.86409   0.12335  -0.20751
C          C       0.13302   0.45971   0.16667  -0.22083
C          C       0.40666   0.67675   0.18678   0.08332
C          C       0.33135   0.70987   0.16633   0.08379
C          C       0.29528   0.60099   0.18648   0.08403
C          C       0.92807   0.94218   0.57256   0.07622
C          C       0.04172   0.99703   0.56321   0.08161
C          C       0.98657   0.05344   0.55478   0.07876
C          C       0.37112   0.73273   0.67654  -0.19605
C          C       0.26057   0.66151   0.67889  -0.19595
C          C       0.33126   0.62314   0.67016  -0.18739
C          C       0.98430   0.94249   0.57129  -0.17838
C          C       0.04182   0.05214   0.55529  -0.17806
C          C       0.92974   0.99800   0.56273  -0.19061
C          C       0.86934   0.88391   0.59019   0.08759
C          C       0.10106   0.99793   0.57041   0.08569
C          C       0.98863   0.11287   0.55414   0.08678
C          C       0.56555   0.58043   0.79021  -0.01838
C          C       0.41868   0.02184   0.77478  -0.00797
C          C       0.97342   0.41666   0.78716  -0.01292
C          C       0.82075   0.88412   0.68300  -0.26832
C          C       0.10662   0.95526   0.65102  -0.26916
C          C       0.03429   0.16735   0.65276  -0.26383
C          C       0.55078   0.51961   0.77123  -0.15940
C          C       0.47898   0.06654   0.75384  -0.16829
C          C       0.92839   0.42994   0.75684  -0.16847
C          C       0.76766   0.82856   0.70655   0.23777
C          C       0.16398   0.96017   0.66805   0.24132
C          C       0.03318   0.22209   0.66579   0.23854
C          C       0.61317   0.49927   0.16785  -0.09258
C          C       0.50927   0.09438   0.21858  -0.10094
C          C       0.90317   0.38848   0.16704  -0.09624
C          C       0.75896   0.76961   0.64468  -0.04784
C          C       0.21924   0.00588   0.60701  -0.05070
C          C       0.98762   0.22721   0.58477  -0.04851
C          C       0.66617   0.54146   0.09617  -0.19279
C          C       0.46533   0.10552   0.16048  -0.19501
C          C       0.89480   0.33171   0.09333  -0.18866
C          C       0.80753   0.77084   0.54511  -0.09290
C          C       0.21179   0.04664   0.51957  -0.09207
C          C       0.94446   0.17238   0.47752  -0.08711
C          C       0.86056   0.82565   0.51770  -0.15337
C          C       0.15516   0.04310   0.50230  -0.15396
C          C       0.94441   0.11701   0.46314  -0.15309
C          C       0.70837   0.70830   0.67596   0.06106
C          C       0.28269   0.01848   0.63280   0.05804
C          C       0.97539   0.27886   0.61048   0.06539
C          C       0.64937   0.68809   0.74353   0.13829
C          C       0.30715   0.98737   0.70618   0.14776
C          C       0.00806   0.33923   0.70306   0.14404
C          C       0.68492   0.60507   0.12617   0.27037
C          C       0.40167   0.06183   0.17045   0.26702
C          C       0.94006   0.31643   0.12262   0.27270
C          C       0.56312   0.71083   0.76720   0.22521
C          C       0.28691   0.88189   0.74228   0.22314
C          C       0.11567   0.43010   0.74101   0.22254
C          C       0.54552   0.75221   0.85125  -0.19673
C          C       0.24555   0.82821   0.81298  -0.19984
C          C       0.17675   0.44799   0.78803  -0.19113
C          C       0.48830   0.74480   0.81341  -0.11656
C          C       0.25227   0.77642   0.78813  -0.11082
C          C       0.22639   0.50584   0.76289  -0.11284
C          C       0.44554   0.69498   0.69522   0.03884
C          C       0.30052   0.77573   0.69325   0.03148
C          C       0.21779   0.54818   0.68919   0.04103
C          C       0.46387   0.65453   0.61019  -0.11077
C          C       0.34020   0.82878   0.61898  -0.10791
C          C       0.15691   0.52843   0.63517  -0.11321
C          C       0.52207   0.66265   0.64307  -0.21106
C          C       0.33359   0.88084   0.64145  -0.21704
C          C       0.10685   0.47083   0.66061  -0.21628
C          C       0.38211   0.68363   0.67474   0.08536
C          C       0.31046   0.72249   0.67890   0.08379
C          C       0.27013   0.61122   0.67526   0.08130
N          N       0.64761   0.62303   0.22713   0.00165
N          N       0.38495   0.00632   0.23465  -0.02711
N          N       0.99392   0.36117   0.22269  -0.00267
N          N       0.71753   0.65869   0.63233  -0.40101
N          N       0.33042   0.07272   0.58439  -0.40044
N          N       0.91949   0.26741   0.54590  -0.40072
N          N       0.64786   0.71811   0.32353  -0.38254
N          N       0.28900   0.91279   0.27593  -0.37002
N          N       0.08848   0.36916   0.31704  -0.37461
N          N       0.62272   0.62439   0.74077  -0.00772
N          N       0.37136   0.02556   0.70570  -0.00297
N          N       0.96884   0.36292   0.70144  -0.00715
N          N       0.73380   0.65441   0.07596  -0.40078
N          N       0.35128   0.06215   0.12641  -0.40067
N          N       0.94197   0.26503   0.07180  -0.40281
N          N       0.62030   0.71935   0.81697  -0.36713
N          N       0.27999   0.93397   0.78121  -0.37409
N          N       0.06616   0.37433   0.78668  -0.37622
F          F       0.74729   0.83194   0.28247  -0.15192
F          F       0.17373   0.89602   0.21728  -0.15407
F          F       0.10911   0.27186   0.25013  -0.15228
F          F       0.72293   0.83463   0.80024  -0.15618
F          F       0.16481   0.91754   0.75639  -0.14873
F          F       0.07932   0.27167   0.77360  -0.15001

