data_crystal

_audit_creation_method 'AiiDA-DDEC plugin'

_cell_length_a        27.91239
_cell_length_b        27.24920
_cell_length_c         6.03610

_cell_angle_alpha     99.86585
_cell_angle_beta     91.78191
_cell_angle_gamma     90.89455

_symmetry_space_group_name_Hall 'P 1'
_symmetry_space_group_name_H-M  'P 1'

loop_
_symmetry_equiv_pos_as_xyz
 'x,y,z'

loop_
_atom_site_label
_atom_site_type_symbol
_atom_site_fract_x
_atom_site_fract_y
_atom_site_fract_z
_atom_site_charge
H          H       0.43799   0.01486   0.78576   0.10892
H          H       0.37885   0.94830   0.81763   0.10246
H          H       0.47557   0.83616   0.51490   0.11164
H          H       0.56777   0.83279   0.42460   0.11262
H          H       0.68260   0.93469   0.34766   0.10838
H          H       0.62864   0.00526   0.41345   0.10687
H          H       0.32592   0.89502   0.57456   0.10546
H          H       0.26328   0.82820   0.55268   0.11317
H          H       0.36929   0.72774   0.72840   0.10248
H          H       0.43217   0.79362   0.74759   0.10884
H          H       0.63274   0.80194   0.05037   0.11208
H          H       0.70029   0.74456   0.96345   0.10921
H          H       0.77196   0.80904   0.59206   0.11064
H          H       0.70618   0.86909   0.66575   0.11444
H          H       0.05567   0.62386   0.28653   0.11688
H          H       0.96938   0.62413   0.35283   0.11103
H          H       0.98300   0.39596   0.64522   0.10813
H          H       0.06642   0.39223   0.54753   0.11027
H          H       0.18386   0.51738   0.41233   0.11088
H          H       0.19784   0.57987   0.17647   0.11006
H          H       0.24972   0.65525   0.25876   0.11483
H          H       0.15206   0.72125   0.75445   0.12356
H          H       0.10348   0.64314   0.69741   0.11311
H          H       0.12654   0.41312   0.78752   0.11311
H          H       0.17618   0.33979   0.80823   0.11903
H          H       0.24064   0.35920   0.18737   0.11040
H          H       0.19110   0.43255   0.17019   0.10773
H          H       0.62631   0.04731   0.73006   0.11851
H          H       0.68305   0.11718   0.72686   0.10680
H          H       0.57448   0.20023   0.44425   0.10752
H          H       0.48430   0.19682   0.41210   0.10561
H          H       0.36764   0.08713   0.36571   0.08863
H          H       0.42446   0.02418   0.43124   0.11082
H          H       0.72980   0.15727   0.52672   0.10882
H          H       0.78829   0.22884   0.54345   0.11410
H          H       0.67285   0.33140   0.63736   0.10173
H          H       0.61470   0.26134   0.63052   0.10268
H          H       0.43712   0.24456   0.31322   0.13156
H          H       0.37933   0.31176   0.34824   0.11710
H          H       0.27102   0.20966   0.51176   0.11510
H          H       0.32997   0.14932   0.48797   0.27777
H          H       0.86780   0.47321   0.03610   0.11748
H          H       0.80387   0.39578   0.00421   0.12461
H          H       0.87486   0.38599   0.40366   0.12934
H          H       0.91145   0.35595   0.58446   0.14007
H          H       0.94047   0.66116   0.68878   0.11414
H          H       0.89034   0.73000   0.60669   0.11203
H          H       0.77987   0.62217   0.31918   0.11090
H          H       0.83007   0.55518   0.40739   0.11033
H          H       0.86185   0.51812   0.68190   0.10744
H          H       0.78968   0.72875   0.03115   0.12485
H          H       0.75067   0.36325   0.65917   0.05532
H          H       0.29131   0.69621   0.63472   0.05943
H          H       0.30023   0.34144   0.39923   0.06965
C          C       0.50073   0.91287   0.55495   0.02843
C          C       0.00043   0.42860   0.59904  -0.12819
C          C       0.55065   0.91116   0.48771   0.02144
C          C       0.04797   0.42690   0.54704  -0.13404
C          C       0.56794   0.96122   0.49500   0.01405
C          C       0.07279   0.46966   0.49636   0.02672
C          C       0.52870   0.99555   0.55819  -0.01286
C          C       0.12309   0.47020   0.45843   0.02003
C          C       0.48886   0.96429   0.60923   0.01049
C          C       0.14502   0.51439   0.41910  -0.19262
C          C       0.44565   0.97649   0.71652  -0.11663
C          C       0.11948   0.55774   0.41166   0.02995
C          C       0.41236   0.93882   0.73496  -0.15814
C          C       0.14645   0.60517   0.43032   0.04914
C          C       0.42173   0.88797   0.65680   0.05785
C          C       0.15351   0.42714   0.47310   0.06120
C          C       0.46740   0.87523   0.57323  -0.17444
C          C       0.18793   0.61005   0.30819  -0.12989
C          C       0.58069   0.87093   0.43131  -0.17994
C          C       0.21686   0.65275   0.35053  -0.18874
C          C       0.62937   0.87970   0.39574   0.06980
C          C       0.20405   0.69340   0.51226   0.20750
C          C       0.64560   0.92860   0.38963  -0.15209
C          C       0.16113   0.69018   0.62607  -0.17346
C          C       0.61502   0.96871   0.42973  -0.12110
C          C       0.13361   0.64647   0.59037  -0.12442
C          C       0.38424   0.84936   0.65958   0.07729
C          C       0.15044   0.40048   0.65261  -0.12843
C          C       0.66504   0.83976   0.36237   0.05641
C          C       0.17929   0.35988   0.66873  -0.16769
C          C       0.33566   0.85845   0.60981  -0.13755
C          C       0.21341   0.34527   0.50403   0.20221
C          C       0.30052   0.82146   0.59553  -0.10297
C          C       0.21687   0.37187   0.32368  -0.18678
C          C       0.31232   0.77331   0.63318   0.04364
C          C       0.18781   0.41239   0.30945  -0.12867
C          C       0.36024   0.76429   0.69029  -0.12965
C          C       0.55335   0.12761   0.50713   0.02007
C          C       0.39549   0.80135   0.70165  -0.13855
C          C       0.50183   0.12380   0.46165   0.02319
C          C       0.66332   0.80343   0.16747  -0.13404
C          C       0.48620   0.07460   0.48623   0.01206
C          C       0.70145   0.77118   0.11867  -0.14833
C          C       0.52728   0.04665   0.54566  -0.02033
C          C       0.74144   0.77307   0.26835   0.11315
C          C       0.56822   0.08188   0.56870   0.02437
C          C       0.74180   0.80741   0.47111  -0.14356
C          C       0.61488   0.07935   0.65851  -0.11564
C          C       0.70444   0.84094   0.51487  -0.14447
C          C       0.64676   0.11930   0.66056  -0.14765
C          C       0.04560   0.51324   0.47986  -0.00027
C          C       0.63340   0.16277   0.57793   0.05616
C          C       0.06863   0.55579   0.41792   0.02854
C          C       0.58561   0.16676   0.50539  -0.17589
C          C       0.03943   0.59475   0.36287  -0.13355
C          C       0.47030   0.15977   0.42079  -0.16396
C          C       0.99128   0.59511   0.40321  -0.13808
C          C       0.42010   0.14917   0.40343  -0.01254
C          C       0.28607   0.30735   0.45136   0.03624
C          C       0.40512   0.09868   0.40211  -0.17452
C          C       0.43720   0.06229   0.43806  -0.10893
C          C       0.66788   0.20396   0.57559   0.07498
C          C       0.38779   0.18922   0.39891   0.14644
C          C       0.71747   0.19546   0.55380  -0.13679
C          C       0.74999   0.23475   0.56261  -0.09879
C          C       0.73427   0.28418   0.59270   0.04729
C          C       0.68485   0.29300   0.60950  -0.13064
C          C       0.65230   0.25361   0.60146  -0.13995
C          C       0.40072   0.23759   0.35989  -0.16796
C          C       0.36800   0.27515   0.37678  -0.11470
C          C       0.31923   0.26706   0.43440  -0.01025
C          C       0.30717   0.21956   0.47025   0.05237
C          C       0.80564   0.71624   0.35548  -0.04678
C          C       0.86642   0.44083   0.90302  -0.14681
C          C       0.83170   0.40011   0.88652  -0.23431
C          C       0.83962   0.36641   0.69522   0.21543
C          C       0.88290   0.38356   0.58224  -0.27398
C          C       0.90535   0.65305   0.60870  -0.13740
C          C       0.87746   0.69174   0.56086  -0.12925
C          C       0.83169   0.68200   0.44239   0.07448
C          C       0.81451   0.63098   0.40408  -0.11859
C          C       0.84284   0.59340   0.45520  -0.14523
C          C       0.89562   0.43406   0.72217   0.05184
C          C       0.88999   0.60249   0.54938   0.07661
C          C       0.92004   0.56017   0.56976   0.01452
C          C       0.89924   0.51792   0.63777  -0.19198
C          C       0.92374   0.47403   0.64774   0.02697
C          C       0.97296   0.47166   0.59144   0.03009
C          C       0.96888   0.55794   0.50571   0.03148
C          C       0.99565   0.51442   0.52747  -0.00051
C          C       0.78099   0.73821   0.21102  -0.18242
C          C       0.76733   0.32653   0.62292   0.06672
C          C       0.27713   0.73253   0.60894   0.07599
N          N       0.23252   0.73696   0.55924  -0.28540
N          N       0.24252   0.30488   0.52273  -0.32008
N          N       0.33999   0.18300   0.45182  -0.18465
N          N       0.81374   0.32327   0.61584  -0.28865

