data_crystal

_audit_creation_method 'AiiDA-DDEC plugin'

_cell_length_a        31.60103
_cell_length_b        29.61937
_cell_length_c         8.11762

_cell_angle_alpha     113.36788
_cell_angle_beta     88.70996
_cell_angle_gamma     90.12575

_symmetry_space_group_name_Hall 'P 1'
_symmetry_space_group_name_H-M  'P 1'

loop_
_symmetry_equiv_pos_as_xyz
 'x,y,z'

loop_
_atom_site_label
_atom_site_type_symbol
_atom_site_fract_x
_atom_site_fract_y
_atom_site_fract_z
_atom_site_charge
H          H       0.41897   0.96625   0.13791   0.10825
H          H       0.36807   0.90012   0.10511   0.10448
H          H       0.46238   0.82054   0.25835   0.10908
H          H       0.54183   0.82427   0.30311   0.10978
H          H       0.64277   0.92910   0.40855   0.10687
H          H       0.59418   0.98991   0.38554   0.10322
H          H       0.33023   0.87338   0.31762   0.10580
H          H       0.27703   0.81133   0.32014   0.11559
H          H       0.36703   0.69569   0.04371   0.09916
H          H       0.42004   0.75758   0.04362   0.10312
H          H       0.58191   0.79651   0.94786   0.10657
H          H       0.64210   0.73170   0.42831   0.10242
H          H       0.73164   0.80298   0.20694   0.11373
H          H       0.67721   0.86504   0.22503   0.10582
H          H       0.29847   0.67423   0.12284   0.05889
H          H       0.28765   0.30080   0.43246   0.05557
H          H       0.59412   0.00141   0.19047   0.10313
H          H       0.64015   0.06383   0.16131   0.10570
H          H       0.53426   0.16353   0.26592   0.10957
H          H       0.74690   0.62694   0.12892   0.10521
H          H       0.45518   0.16403   0.32342   0.10929
H          H       0.80294   0.56688   0.11191   0.09898
H          H       0.36235   0.07726   0.46019   0.10773
H          H       0.79728   0.42668   0.42301   0.10079
H          H       0.41647   0.01412   0.42783   0.10673
H          H       0.73848   0.37004   0.41183   0.10331
H          H       0.67334   0.12749   0.31396   0.10471
H          H       0.82608   0.24865   0.25822   0.11682
H          H       0.72483   0.19147   0.32079   0.11430
H          H       0.88482   0.30434   0.25525   0.10381
H          H       0.62854   0.26464   0.15182   0.10490
H          H       0.57729   0.19984   0.13587   0.10649
H          H       0.40839   0.22928   0.02746   0.10223
H          H       0.35425   0.28262   0.52202   0.09753
H          H       0.26988   0.16342   0.25567   0.11519
H          H       0.32500   0.10401   0.26275   0.10376
H          H       0.01574   0.38108   0.13223   0.10957
H          H       0.07228   0.32784   0.15411   0.10247
H          H       0.15996   0.44811   0.30558   0.10859
H          H       0.16252   0.53150   0.27839   0.10785
H          H       0.07437   0.65016   0.37213   0.10238
H          H       0.01498   0.59655   0.36248   0.10913
H          H       0.10608   0.30633   0.33586   0.10037
H          H       0.15868   0.24700   0.35442   0.11954
H          H       0.25869   0.32995   0.24272   0.09903
H          H       0.20611   0.38759   0.21293   0.10057
H          H       0.20846   0.58893   0.36422   0.10000
H          H       0.26486   0.64318   0.33405   0.10033
H          H       0.17187   0.72897   0.20554   0.12097
H          H       0.11569   0.67242   0.22069   0.10721
H          H       0.70192   0.29876   0.20372   0.06950
H          H       0.71505   0.70034   0.36474   0.06711
H          H       0.99378   0.56793   0.11329   0.10178
H          H       0.93634   0.62082   0.09430   0.10189
H          H       0.84517   0.53665   0.25174   0.10389
H          H       0.84221   0.45428   0.27383   0.10501
H          H       0.92762   0.36124   0.40667   0.10114
H          H       0.98809   0.40938   0.37824   0.10304
H          H       0.89520   0.68250   0.26613   0.10352
H          H       0.83945   0.74212   0.27207   0.11713
H          H       0.41296   0.97052   0.64776   0.10710
H          H       0.36228   0.90425   0.61523   0.10398
H          H       0.45877   0.82185   0.74241   0.10988
H          H       0.53752   0.82588   0.79002   0.10921
H          H       0.63714   0.93303   0.91870   0.10622
H          H       0.58850   0.99344   0.89198   0.10417
H          H       0.32529   0.87676   0.81951   0.10613
H          H       0.27189   0.81478   0.81934   0.11506
H          H       0.36212   0.69894   0.54864   0.09842
H          H       0.41481   0.76042   0.54357   0.10296
H          H       0.58758   0.79352   0.44849   0.10402
H          H       0.63562   0.73336   0.92353   0.10301
H          H       0.72714   0.80611   0.71682   0.11388
H          H       0.67342   0.86919   0.73849   0.10559
H          H       0.29351   0.67757   0.62507   0.05724
H          H       0.28863   0.30743   0.91784   0.05616
H          H       0.58995   0.00182   0.68405   0.10482
H          H       0.63659   0.06368   0.65538   0.10558
H          H       0.53279   0.16630   0.77379   0.10907
H          H       0.73995   0.62762   0.63542   0.10301
H          H       0.45319   0.16773   0.82339   0.10864
H          H       0.79547   0.56750   0.61907   0.09956
H          H       0.35994   0.08345   0.97162   0.10463
H          H       0.79526   0.42460   0.93428   0.09991
H          H       0.41272   0.01891   0.93338   0.10720
H          H       0.73698   0.36707   0.92181   0.10396
H          H       0.67095   0.12507   0.80142   0.10573
H          H       0.82548   0.24659   0.74969   0.11750
H          H       0.72315   0.18839   0.80974   0.11308
H          H       0.88342   0.30331   0.74992   0.10323
H          H       0.62708   0.26479   0.65302   0.10296
H          H       0.57504   0.20080   0.63788   0.10658
H          H       0.40902   0.22373   0.53024   0.10338
H          H       0.35573   0.28890   0.00970   0.09849
H          H       0.26782   0.17093   0.76848   0.11528
H          H       0.32124   0.11094   0.78070   0.10573
H          H       0.01201   0.38390   0.63783   0.10915
H          H       0.07012   0.33047   0.64196   0.10116
H          H       0.15537   0.45306   0.81747   0.10903
H          H       0.15739   0.53576   0.78670   0.10885
H          H       0.06886   0.65324   0.87044   0.10226
H          H       0.00962   0.59975   0.86362   0.10918
H          H       0.10480   0.30882   0.82644   0.10448
H          H       0.15896   0.25182   0.85217   0.11910
H          H       0.25672   0.33574   0.73478   0.09786
H          H       0.20322   0.39148   0.69956   0.10099
H          H       0.20297   0.59476   0.87476   0.10033
H          H       0.25907   0.64833   0.83705   0.10063
H          H       0.16591   0.73148   0.69757   0.12150
H          H       0.11028   0.67387   0.71037   0.10397
H          H       0.70226   0.29527   0.68910   0.06856
H          H       0.70791   0.70056   0.85540   0.06650
H          H       0.98766   0.56957   0.61455   0.10346
H          H       0.92990   0.62120   0.59341   0.10253
H          H       0.83952   0.53499   0.74479   0.10292
H          H       0.83836   0.45233   0.77398   0.10351
H          H       0.92586   0.36081   0.90336   0.10355
H          H       0.98498   0.41150   0.88195   0.10303
H          H       0.88863   0.68239   0.74986   0.10340
H          H       0.83301   0.74156   0.75417   0.11852
C          C       0.48138   0.89070   0.25681   0.02745
C          C       0.47682   0.09439   0.31906   0.02786
C          C       0.52627   0.89445   0.29709   0.02576
C          C       0.46580   0.04953   0.33386   0.01078
C          C       0.54070   0.94110   0.30735   0.02082
C          C       0.50368   0.01749   0.29531   0.00421
C          C       0.50478   0.96883   0.27931   0.00211
C          C       0.53846   0.04740   0.26843   0.02034
C          C       0.46862   0.93461   0.23952   0.01143
C          C       0.58118   0.03748   0.21920  -0.11134
C          C       0.42813   0.93612   0.17404  -0.10788
C          C       0.60712   0.07312   0.20052  -0.14722
C          C       0.39964   0.89835   0.15335  -0.14959
C          C       0.59164   0.11993   0.22351   0.07249
C          C       0.41093   0.85728   0.19008   0.06731
C          C       0.54775   0.12871   0.25591  -0.17225
C          C       0.45310   0.85273   0.23424  -0.17596
C          C       0.44678   0.13090   0.34341  -0.17350
C          C       0.55350   0.86012   0.31652  -0.17188
C          C       0.40448   0.12384   0.38571   0.06755
C          C       0.59684   0.87103   0.34502   0.07254
C          C       0.39445   0.08139   0.41649  -0.15045
C          C       0.61015   0.91880   0.37238  -0.14915
C          C       0.42476   0.04532   0.39567  -0.10895
C          C       0.58269   0.95333   0.35655  -0.11163
C          C       0.62128   0.15820   0.22183   0.06447
C          C       0.37924   0.81997   0.18267   0.07372
C          C       0.37134   0.15955   0.39360   0.07436
C          C       0.62842   0.83433   0.34101   0.06363
C          C       0.66356   0.15649   0.27271  -0.13016
C          C       0.33813   0.83448   0.25691  -0.13321
C          C       0.69230   0.19270   0.28158  -0.10781
C          C       0.30849   0.80009   0.25967  -0.09210
C          C       0.67996   0.23281   0.24204   0.04854
C          C       0.31873   0.74967   0.18572   0.05701
C          C       0.63811   0.23475   0.18932  -0.13021
C          C       0.35912   0.73470   0.10572  -0.13558
C          C       0.60922   0.19813   0.18047  -0.13822
C          C       0.38895   0.76946   0.10563  -0.13651
C          C       0.37890   0.21042   0.46745  -0.13678
C          C       0.61888   0.79545   0.39285  -0.13604
C          C       0.34800   0.24335   0.46337  -0.13160
C          C       0.64952   0.76053   0.38121  -0.12542
C          C       0.30866   0.22675   0.38491   0.05643
C          C       0.69060   0.76293   0.31449   0.04669
C          C       0.30055   0.17593   0.31479  -0.09428
C          C       0.70014   0.80175   0.26174  -0.10792
C          C       0.33121   0.14327   0.32117  -0.13562
C          C       0.66984   0.83681   0.27533  -0.13075
C          C       0.09558   0.46400   0.26496   0.02962
C          C       0.28844   0.71286   0.18899   0.06083
C          C       0.09635   0.51514   0.28561   0.02923
C          C       0.27749   0.26213   0.37821   0.06679
C          C       0.05368   0.53099   0.28857   0.01742
C          C       0.52206   0.09326   0.27875   0.02596
C          C       0.02488   0.48931   0.25590  -0.00140
C          C       0.05291   0.44759   0.23631   0.01868
C          C       0.95705   0.41763   0.34316  -0.12427
C          C       0.04614   0.39707   0.18170  -0.11348
C          C       0.85339   0.62005   0.18811   0.05859
C          C       0.07865   0.36667   0.19145  -0.14846
C          C       0.84559   0.36963   0.33639   0.06198
C          C       0.11962   0.38448   0.24714   0.07511
C          C       0.86293   0.66995   0.23138  -0.12140
C          C       0.12821   0.43355   0.27300  -0.17142
C          C       0.83180   0.70364   0.23770  -0.15702
C          C       0.13035   0.54576   0.29426  -0.17320
C          C       0.78917   0.68913   0.20816   0.21304
C          C       0.12303   0.59438   0.31170   0.07250
C          C       0.77933   0.63916   0.16144  -0.18038
C          C       0.08077   0.61176   0.34341  -0.14849
C          C       0.81097   0.60546   0.15117  -0.12188
C          C       0.04674   0.58123   0.33577  -0.11234
C          C       0.80374   0.38747   0.38153  -0.12383
C          C       0.15167   0.35162   0.27081   0.05618
C          C       0.77063   0.35584   0.37691  -0.18023
C          C       0.15738   0.62642   0.29675   0.05301
C          C       0.77835   0.30530   0.33055   0.20997
C          C       0.13939   0.31120   0.31084  -0.12797
C          C       0.82035   0.28772   0.29359  -0.15167
C          C       0.16876   0.27801   0.32361  -0.15083
C          C       0.85294   0.31913   0.29317  -0.12195
C          C       0.21242   0.28447   0.30212   0.20721
C          C       0.22520   0.32535   0.26610  -0.18153
C          C       0.19546   0.35795   0.25032  -0.12158
C          C       0.20018   0.61878   0.32468  -0.12264
C          C       0.23220   0.64955   0.30864  -0.18749
C          C       0.22209   0.69058   0.26986   0.20358
C          C       0.17936   0.69864   0.24329  -0.15058
C          C       0.14793   0.66671   0.25267  -0.12877
C          C       0.71087   0.27072   0.25378   0.06481
C          C       0.72273   0.72616   0.30145   0.06758
C          C       0.91031   0.51436   0.23628   0.03766
C          C       0.90875   0.47007   0.27299   0.03814
C          C       0.95114   0.45582   0.28573   0.01294
C          C       0.98071   0.48982   0.25088   0.00372
C          C       0.95352   0.52529   0.21625   0.01183
C          C       0.96205   0.56255   0.15537  -0.12126
C          C       0.92927   0.59244   0.14376  -0.15108
C          C       0.88686   0.58544   0.18634   0.06981
C          C       0.87771   0.54408   0.22453  -0.17136
C          C       0.87409   0.44363   0.29318  -0.17150
C          C       0.88072   0.40155   0.32986   0.06649
C          C       0.92246   0.39061   0.36098  -0.14703
C          C       0.47657   0.89285   0.74885   0.02831
C          C       0.47373   0.09778   0.81928   0.02789
C          C       0.52148   0.89648   0.78899   0.02380
C          C       0.46214   0.05309   0.83441   0.01237
C          C       0.53582   0.94358   0.80419   0.02014
C          C       0.49937   0.02012   0.79280   0.00250
C          C       0.49999   0.97151   0.77709   0.00220
C          C       0.53460   0.04895   0.76341   0.02006
C          C       0.46370   0.93750   0.73753   0.01219
C          C       0.57717   0.03799   0.71288  -0.11247
C          C       0.42273   0.93967   0.67821  -0.10879
C          C       0.60363   0.07328   0.69433  -0.14821
C          C       0.39420   0.90200   0.65864  -0.15101
C          C       0.58895   0.12055   0.72068   0.07350
C          C       0.40583   0.85992   0.68808   0.06758
C          C       0.54539   0.13055   0.75667  -0.17446
C          C       0.44844   0.85461   0.72449  -0.17385
C          C       0.44426   0.13489   0.84494  -0.17456
C          C       0.54887   0.86215   0.80762  -0.17259
C          C       0.40195   0.12895   0.89088   0.06839
C          C       0.59184   0.87397   0.84523   0.07185
C          C       0.39162   0.08663   0.92262  -0.15219
C          C       0.60486   0.92213   0.87671  -0.14742
C          C       0.42133   0.04978   0.89968  -0.10797
C          C       0.57749   0.95637   0.85804  -0.11243
C          C       0.61903   0.15816   0.71879   0.06518
C          C       0.37409   0.82297   0.68259   0.07368
C          C       0.36928   0.16547   0.90071   0.07265
C          C       0.62338   0.83745   0.84445   0.06434
C          C       0.66143   0.15498   0.76459  -0.13121
C          C       0.33308   0.83776   0.75784  -0.13603
C          C       0.69060   0.19062   0.77295  -0.10559
C          C       0.30334   0.80345   0.75941  -0.09288
C          C       0.67850   0.23134   0.73667   0.04877
C          C       0.31353   0.75293   0.68537   0.05711
C          C       0.63656   0.23438   0.68744  -0.12693
C          C       0.35403   0.73797   0.60784  -0.13199
C          C       0.60715   0.19851   0.67989  -0.13945
C          C       0.38376   0.77246   0.60608  -0.13480
C          C       0.37808   0.21622   0.96664  -0.13666
C          C       0.61334   0.79812   0.89318  -0.14033
C          C       0.34825   0.24977   0.95846  -0.13549
C          C       0.64363   0.76261   0.87947  -0.12613
C          C       0.30837   0.23372   0.88461   0.05624
C          C       0.68489   0.76492   0.81394   0.04851
C          C       0.29891   0.18318   0.82310  -0.09091
C          C       0.69529   0.80479   0.76865  -0.10680
C          C       0.32867   0.14996   0.83243  -0.13276
C          C       0.66525   0.84032   0.78421  -0.12931
C          C       0.09115   0.46782   0.77178   0.02854
C          C       0.28307   0.71620   0.68792   0.06591
C          C       0.09131   0.51897   0.79221   0.03054
C          C       0.27770   0.26895   0.87259   0.06501
C          C       0.04846   0.53420   0.79321   0.01610
C          C       0.51900   0.09548   0.77736   0.02624
C          C       0.02009   0.49213   0.76091  -0.00088
C          C       0.04873   0.45078   0.74091   0.01764
C          C       0.95393   0.41891   0.84422  -0.12082
C          C       0.04260   0.40006   0.68286  -0.11629
C          C       0.84682   0.61997   0.68516   0.06167
C          C       0.07574   0.36966   0.68692  -0.14697
C          C       0.84360   0.36812   0.83621   0.05943
C          C       0.11668   0.38765   0.74232   0.07257
C          C       0.85627   0.66965   0.72113  -0.11849
C          C       0.12416   0.43756   0.77835  -0.17078
C          C       0.82527   0.70335   0.72622  -0.15407
C          C       0.12516   0.54981   0.80072  -0.17073
C          C       0.78250   0.68927   0.70351   0.21193
C          C       0.11766   0.59805   0.81425   0.07390
C          C       0.77259   0.63958   0.66269  -0.18212
C          C       0.07528   0.61498   0.84394  -0.14967
C          C       0.80410   0.60577   0.65367  -0.12491
C          C       0.04132   0.58432   0.83752  -0.11536
C          C       0.80179   0.38534   0.88673  -0.12381
C          C       0.14958   0.35498   0.76158   0.05884
C          C       0.76906   0.35322   0.88112  -0.18217
C          C       0.15184   0.62995   0.79617   0.05021
C          C       0.77720   0.30257   0.82683   0.21222
C          C       0.13807   0.31471   0.80372  -0.13019
C          C       0.81932   0.28561   0.78806  -0.15677
C          C       0.16818   0.28247   0.81820  -0.14902
C          C       0.85146   0.31763   0.78930  -0.11983
C          C       0.21167   0.28968   0.79678   0.20522
C          C       0.22348   0.33050   0.75881  -0.18369
C          C       0.19321   0.36207   0.73989  -0.12088
C          C       0.19460   0.62330   0.82814  -0.11942
C          C       0.22640   0.65385   0.80939  -0.18668
C          C       0.21641   0.69393   0.76470   0.20625
C          C       0.17363   0.70136   0.73621  -0.15621
C          C       0.14248   0.66929   0.74617  -0.12776
C          C       0.70995   0.26856   0.74730   0.06709
C          C       0.71634   0.72718   0.79694   0.06492
C          C       0.90504   0.51454   0.73509   0.03714
C          C       0.90438   0.47033   0.77332   0.03807
C          C       0.94704   0.45714   0.78766   0.01545
C          C       0.97595   0.49172   0.75342   0.00698
C          C       0.94812   0.52628   0.71616   0.01588
C          C       0.95602   0.56369   0.65585  -0.12022
C          C       0.92284   0.59287   0.64288  -0.14774
C          C       0.88046   0.58534   0.68391   0.06787
C          C       0.87199   0.54363   0.72167  -0.17422
C          C       0.87057   0.44266   0.79290  -0.17567
C          C       0.87817   0.40071   0.82920   0.06888
C          C       0.92014   0.39058   0.86008  -0.15050
N          N       0.24030   0.24935   0.31398  -0.27837
N          N       0.25096   0.72530   0.26209  -0.27243
N          N       0.75905   0.72518   0.22354  -0.28458
N          N       0.74762   0.27034   0.31966  -0.28496
N          N       0.24013   0.25578   0.81374  -0.27838
N          N       0.24534   0.72852   0.75560  -0.27320
N          N       0.75285   0.72588   0.71998  -0.28584
N          N       0.74637   0.26770   0.81432  -0.28242

