data_crystal

_audit_creation_method 'AiiDA-DDEC plugin'

_cell_length_a        31.53143
_cell_length_b        28.60967
_cell_length_c         8.13901

_cell_angle_alpha     95.73964
_cell_angle_beta     93.42448
_cell_angle_gamma     90.08882

_symmetry_space_group_name_Hall 'P 1'
_symmetry_space_group_name_H-M  'P 1'

loop_
_symmetry_equiv_pos_as_xyz
 'x,y,z'

loop_
_atom_site_label
_atom_site_type_symbol
_atom_site_fract_x
_atom_site_fract_y
_atom_site_fract_z
_atom_site_charge
H          H       0.36601   0.92245   0.06480   0.10560
H          H       0.63446   0.07556   0.08752   0.10450
H          H       0.64046   0.92617   0.44687   0.10390
H          H       0.36935   0.07740   0.44683   0.10624
H          H       0.46220   0.82457   0.20640   0.10643
H          H       0.53430   0.17478   0.19190   0.10984
H          H       0.53885   0.82583   0.31779   0.10952
H          H       0.46085   0.17588   0.30378   0.10859
H          H       0.33350   0.86556   0.95039   0.10574
H          H       0.65678   0.12433   0.94546   0.10444
H          H       0.66647   0.87507   0.58495   0.10536
H          H       0.33797   0.13226   0.54650   0.10522
H          H       0.27872   0.80317   0.92497   0.11669
H          H       0.71176   0.18541   0.92831   0.11601
H          H       0.72132   0.81356   0.60245   0.11609
H          H       0.28167   0.19203   0.55817   0.11537
H          H       0.35981   0.71979   0.22101   0.10192
H          H       0.63848   0.28469   0.22216   0.10071
H          H       0.64240   0.71796   0.27648   0.10143
H          H       0.35503   0.27806   0.27580   0.10088
H          H       0.41356   0.78253   0.25523   0.10249
H          H       0.58537   0.22338   0.25092   0.10402
H          H       0.58909   0.77998   0.24738   0.10544
H          H       0.40999   0.21767   0.25315   0.10209
H          H       0.29070   0.69065   0.13652   0.06129
H          H       0.70590   0.30989   0.13275   0.06053
H          H       0.71106   0.69215   0.37043   0.06120
H          H       0.28655   0.30492   0.34960   0.06279
H          H       0.17023   0.74561   0.13839   0.12042
H          H       0.82592   0.25245   0.16368   0.12172
H          H       0.83112   0.75276   0.37671   0.12104
H          H       0.16602   0.25103   0.35872   0.11968
H          H       0.11466   0.68732   0.18452   0.10401
H          H       0.88450   0.31150   0.20198   0.10297
H          H       0.88817   0.69476   0.31988   0.10569
H          H       0.11002   0.31032   0.31483   0.10333
H          H       0.19112   0.57607   0.96852   0.09948
H          H       0.80663   0.40749   0.94550   0.09979
H          H       0.81429   0.58905   0.51561   0.10065
H          H       0.19485   0.41980   0.53452   0.10043
H          H       0.24739   0.63421   0.92813   0.10413
H          H       0.74725   0.34964   0.91661   0.10315
H          H       0.75609   0.64621   0.56112   0.10505
H          H       0.25188   0.36072   0.56716   0.10406
H          H       0.06432   0.63698   0.02306   0.10420
H          H       0.93366   0.34946   0.03580   0.10628
H          H       0.94064   0.65328   0.43645   0.10558
H          H       0.06396   0.36078   0.45592   0.10455
H          H       0.00630   0.58487   0.09294   0.10975
H          H       0.99358   0.40492   0.10519   0.11845
H          H       0.99790   0.59863   0.35811   0.11758
H          H       0.00622   0.41431   0.37821   0.11110
H          H       0.15839   0.54222   0.20031   0.10779
H          H       0.84407   0.45617   0.18816   0.10965
H          H       0.84612   0.54536   0.30093   0.10833
H          H       0.15800   0.45566   0.31196   0.10735
H          H       0.41595   0.98783   0.13197   0.10554
H          H       0.58974   0.01120   0.15700   0.10510
H          H       0.59320   0.99077   0.38565   0.10551
H          H       0.41933   0.01296   0.39785   0.10420
H          H       0.36417   0.92223   0.56946   0.10596
H          H       0.63453   0.07464   0.58480   0.10480
H          H       0.63933   0.92634   0.94463   0.10452
H          H       0.37143   0.08013   0.96198   0.10365
H          H       0.46186   0.82504   0.70225   0.10730
H          H       0.53527   0.17507   0.68515   0.11061
H          H       0.53726   0.82641   0.81648   0.10935
H          H       0.46069   0.17671   0.79210   0.10781
H          H       0.33421   0.86349   0.43897   0.10596
H          H       0.65416   0.12435   0.42537   0.10309
H          H       0.66323   0.87348   0.09224   0.10562
H          H       0.33402   0.13072   0.01624   0.10619
H          H       0.27956   0.80094   0.41554   0.11594
H          H       0.70954   0.18480   0.40383   0.11589
H          H       0.71807   0.81181   0.10921   0.11563
H          H       0.27840   0.19084   0.02719   0.11599
H          H       0.35910   0.72034   0.72697   0.10166
H          H       0.64376   0.28171   0.73488   0.10022
H          H       0.64223   0.71934   0.76026   0.10094
H          H       0.35900   0.28333   0.79874   0.10259
H          H       0.41258   0.78369   0.76109   0.10557
H          H       0.59033   0.22092   0.76682   0.10084
H          H       0.58894   0.78155   0.73329   0.10252
H          H       0.41403   0.22321   0.77972   0.10263
H          H       0.29028   0.69064   0.63944   0.06364
H          H       0.70868   0.30688   0.63392   0.05762
H          H       0.71006   0.69212   0.86368   0.06165
H          H       0.28830   0.30913   0.86107   0.06341
H          H       0.17010   0.74664   0.63497   0.11938
H          H       0.82859   0.24931   0.63781   0.12136
H          H       0.82838   0.75090   0.85982   0.12223
H          H       0.16720   0.25216   0.83118   0.11979
H          H       0.11418   0.68934   0.68657   0.10358
H          H       0.88649   0.30902   0.68167   0.10376
H          H       0.88545   0.69250   0.80916   0.10452
H          H       0.11078   0.31136   0.79193   0.10240
H          H       0.19007   0.57632   0.47897   0.09901
H          H       0.80512   0.40867   0.45965   0.10245
H          H       0.81403   0.59064   0.03519   0.10115
H          H       0.19195   0.41882   0.05028   0.09981
H          H       0.24685   0.63341   0.43554   0.10467
H          H       0.74639   0.34974   0.42499   0.10284
H          H       0.75583   0.64838   0.07648   0.10344
H          H       0.24900   0.36002   0.08186   0.10220
H          H       0.06336   0.63998   0.53937   0.10628
H          H       0.93379   0.35053   0.52691   0.10539
H          H       0.93875   0.65301   0.94262   0.10674
H          H       0.06331   0.36099   0.95474   0.10672
H          H       0.00522   0.58732   0.60214   0.11030
H          H       0.99317   0.40643   0.59984   0.11749
H          H       0.99612   0.59883   0.86222   0.11748
H          H       0.00533   0.41495   0.88026   0.11041
H          H       0.15716   0.54265   0.70052   0.10801
H          H       0.84344   0.45479   0.69321   0.10984
H          H       0.84472   0.54465   0.80706   0.10912
H          H       0.15689   0.45550   0.80679   0.10823
H          H       0.41341   0.98829   0.63758   0.10546
H          H       0.58888   0.01072   0.65377   0.10385
H          H       0.59191   0.99124   0.88609   0.10511
H          H       0.42003   0.01518   0.90520   0.10587
C          C       0.47955   0.89760   0.23576   0.03221
C          C       0.52245   0.10325   0.23551   0.03038
C          C       0.52458   0.89809   0.28937   0.03049
C          C       0.47881   0.10337   0.28689   0.03076
C          C       0.53933   0.94557   0.30355   0.01780
C          C       0.46734   0.05622   0.30684   0.01709
C          C       0.46685   0.94481   0.22172   0.01532
C          C       0.53766   0.05619   0.22977   0.02020
C          C       0.42604   0.95257   0.15288  -0.11560
C          C       0.57783   0.04683   0.17045  -0.12147
C          C       0.58112   0.95501   0.36612  -0.11654
C          C       0.42823   0.04802   0.37198  -0.11483
C          C       0.39789   0.91506   0.11321  -0.14298
C          C       0.60277   0.08344   0.12782  -0.14488
C          C       0.60774   0.91823   0.40328  -0.14291
C          C       0.40015   0.08499   0.40200  -0.14543
C          C       0.40928   0.86838   0.13767   0.06736
C          C       0.58857   0.13044   0.13844   0.06994
C          C       0.59389   0.87092   0.38248   0.07051
C          C       0.41012   0.13156   0.37301   0.06777
C          C       0.45144   0.86025   0.19547  -0.17111
C          C       0.54722   0.13951   0.19027  -0.16746
C          C       0.55119   0.86159   0.32755  -0.17191
C          C       0.45089   0.14025   0.31911  -0.17126
C          C       0.37798   0.82964   0.10751   0.06107
C          C       0.61736   0.16849   0.10429   0.06288
C          C       0.62383   0.83274   0.41170   0.06212
C          C       0.37850   0.16933   0.39581   0.06198
C          C       0.33928   0.83424   0.01353  -0.12747
C          C       0.65326   0.15902   0.01079  -0.12861
C          C       0.66145   0.84108   0.51375  -0.12875
C          C       0.34163   0.16352   0.48286  -0.12992
C          C       0.30847   0.79912  -0.00314  -0.09965
C          C       0.68384   0.19317  -0.00173  -0.09631
C          C       0.69204   0.80667   0.52617  -0.09749
C          C       0.31003   0.19719   0.49209  -0.10120
C          C       0.31516   0.75737   0.07262   0.04693
C          C       0.67939   0.23893   0.07649   0.05140
C          C       0.68585   0.76190   0.43918   0.05087
C          C       0.31413   0.23902   0.41659   0.05013
C          C       0.35433   0.75151   0.15947  -0.12764
C          C       0.64240   0.24954   0.16046  -0.13181
C          C       0.64743   0.75238   0.34516  -0.13037
C          C       0.35148   0.24613   0.33620  -0.12774
C          C       0.38492   0.78701   0.17754  -0.13311
C          C       0.61213   0.21494   0.17527  -0.13356
C          C       0.61715   0.78727   0.33037  -0.13487
C          C       0.38284   0.21198   0.32512  -0.13567
C          C       0.28188   0.72200   0.07420   0.06592
C          C       0.71312   0.27410   0.07904   0.06328
C          C       0.71948   0.72701   0.43388   0.06245
C          C       0.28027   0.27366   0.41343   0.06578
C          C       0.21275   0.69377   0.03373   0.20478
C          C       0.78240   0.29749   0.04181   0.20174
C          C       0.78949   0.70323   0.46848   0.19950
C          C       0.21294   0.30208   0.46078   0.20561
C          C       0.17430   0.70843   0.10026  -0.15940
C          C       0.82213   0.28642   0.11562  -0.15567
C          C       0.82791   0.71686   0.40743  -0.15593
C          C       0.17198   0.28808   0.39682  -0.15746
C          C       0.14331   0.67571   0.12484  -0.12430
C          C       0.85483   0.31944   0.13558  -0.12577
C          C       0.85982   0.68432   0.37733  -0.12638
C          C       0.14075   0.32138   0.37391  -0.12517
C          C       0.14880   0.62737   0.07963   0.05575
C          C       0.84980   0.36394   0.07763   0.05274
C          C       0.85550   0.63753   0.41366   0.05390
C          C       0.14838   0.36956   0.42027   0.05710
C          C       0.18684   0.61310   0.00894  -0.12670
C          C       0.81060   0.37411  -0.00207  -0.12609
C          C       0.81763   0.62456   0.48068  -0.12470
C          C       0.18878   0.38299   0.49183  -0.12996
C          C       0.21851   0.64561   0.98664  -0.18441
C          C       0.77717   0.34163   0.98124  -0.18701
C          C       0.78486   0.65662   0.50636  -0.18251
C          C       0.22079   0.35000   0.51058  -0.18435
C          C       0.11531   0.59364   0.10946   0.05211
C          C       0.88468   0.39882   0.10614   0.05350
C          C       0.88932   0.60327   0.37652   0.05271
C          C       0.11501   0.40417   0.38822   0.05165
C          C       0.07204   0.60488   0.07937  -0.12450
C          C       0.92726   0.38546   0.08371  -0.12596
C          C       0.93258   0.61714   0.39054  -0.12700
C          C       0.07183   0.39347   0.40655  -0.12695
C          C       0.03923   0.57577   0.11604  -0.19013
C          C       0.96132   0.41665   0.12015  -0.18086
C          C       0.96530   0.58631   0.34872  -0.17555
C          C       0.03905   0.42360   0.36581  -0.18498
C          C       0.04983   0.53451   0.18496   0.10255
C          C       0.95262   0.46281   0.18084   0.09930
C          C       0.95469   0.53977   0.29235   0.09975
C          C       0.04961   0.46543   0.30364   0.09796
C          C       0.09290   0.52166   0.21395  -0.01360
C          C       0.91010   0.47701   0.20476  -0.01464
C          C       0.91140   0.52526   0.27452  -0.01290
C          C       0.09275   0.47754   0.28584  -0.00900
C          C       0.12533   0.55124   0.17476  -0.15870
C          C       0.87646   0.44528   0.16585  -0.15942
C          C       0.87920   0.55670   0.31785  -0.15987
C          C       0.12508   0.44707   0.32998  -0.16055
C          C       0.50354   0.97637   0.26526   0.00315
C          C       0.50338   0.02518   0.26974   0.00089
C          C       0.47831   0.89833   0.73550   0.03121
C          C       0.52225   0.10366   0.72873   0.02864
C          C       0.52330   0.89879   0.78852   0.03203
C          C       0.47864   0.10433   0.78112   0.03213
C          C       0.53806   0.94622   0.80314   0.01626
C          C       0.46708   0.05744   0.80447   0.01575
C          C       0.46535   0.94556   0.72293   0.01329
C          C       0.53706   0.05642   0.72437   0.01853
C          C       0.42421   0.95309   0.65614  -0.11350
C          C       0.57725   0.04646   0.66617  -0.12055
C          C       0.57990   0.95547   0.86565  -0.11663
C          C       0.42868   0.04998   0.87573  -0.11726
C          C       0.39637   0.91523   0.61557  -0.14525
C          C       0.60274   0.08268   0.62386  -0.14355
C          C       0.60651   0.91853   0.90195  -0.14387
C          C       0.40118   0.08729   0.90828  -0.14081
C          C       0.40840   0.86850   0.63672   0.06834
C          C       0.58906   0.12982   0.63419   0.07049
C          C       0.59251   0.87123   0.88047   0.07006
C          C       0.41063   0.13347   0.87279   0.06338
C          C       0.45063   0.86069   0.69369  -0.17115
C          C       0.54763   0.13955   0.68419  -0.16814
C          C       0.54975   0.86212   0.82619  -0.17110
C          C       0.45095   0.14145   0.81330  -0.17073
C          C       0.37764   0.82928   0.60524   0.06077
C          C       0.61841   0.16746   0.60101   0.06215
C          C       0.62227   0.83276   0.90840   0.06499
C          C       0.37892   0.17128   0.89464   0.06338
C          C       0.33956   0.83291   0.50658  -0.12871
C          C       0.65243   0.15836   0.49730  -0.13021
C          C       0.65903   0.84018   0.01591  -0.13247
C          C       0.33989   0.16366   0.96545  -0.12814
C          C       0.30891   0.79764   0.49062  -0.09989
C          C       0.68320   0.19216   0.48265  -0.09954
C          C       0.68954   0.80564   0.02789  -0.09796
C          C       0.30843   0.19743   0.97400  -0.09809
C          C       0.31527   0.75666   0.57114   0.04714
C          C       0.68087   0.23702   0.57018   0.05206
C          C       0.68426   0.76169   0.93423   0.04935
C          C       0.31455   0.24119   0.91355   0.05071
C          C       0.35400   0.75156   0.66205  -0.12889
C          C       0.64574   0.24732   0.66537  -0.13212
C          C       0.64659   0.75304   0.83445  -0.13031
C          C       0.35372   0.24994   0.84821  -0.12920
C          C       0.38439   0.78730   0.67989  -0.13627
C          C       0.61528   0.21310   0.68187  -0.13106
C          C       0.61633   0.78800   0.82058  -0.13438
C          C       0.38506   0.21572   0.83839  -0.13545
C          C       0.28178   0.72163   0.57472   0.06310
C          C       0.71496   0.27164   0.57293   0.06717
C          C       0.71809   0.72690   0.92894   0.06537
C          C       0.28087   0.27608   0.91237   0.06352
C          C       0.21251   0.69381   0.53606   0.20452
C          C       0.78342   0.29582   0.53249   0.20275
C          C       0.78802   0.70323   0.96756   0.20084
C          C       0.21232   0.30241   0.95298   0.20535
C          C       0.17402   0.70926   0.60060  -0.15711
C          C       0.82387   0.28421   0.59825  -0.15667
C          C       0.82576   0.71584   0.89908  -0.15836
C          C       0.17221   0.28874   0.87892  -0.15834
C          C       0.14280   0.67711   0.62794  -0.12499
C          C       0.85620   0.31768   0.62133  -0.12647
C          C       0.85764   0.68308   0.87212  -0.12687
C          C       0.14077   0.32197   0.85830  -0.12340
C          C       0.14798   0.62855   0.58622   0.05710
C          C       0.84999   0.36331   0.57428   0.05529
C          C       0.85388   0.63715   0.91797   0.05359
C          C       0.14741   0.36964   0.91589   0.05782
C          C       0.18599   0.61352   0.51688  -0.12725
C          C       0.80999   0.37417   0.50286  -0.12718
C          C       0.81676   0.62531   0.99226  -0.12959
C          C       0.18678   0.38259  -0.00206  -0.12826
C          C       0.21797   0.64542   0.49277  -0.18419
C          C       0.77698   0.34118   0.48329  -0.18647
C          C       0.78407   0.65763   0.01584  -0.18394
C          C       0.21891   0.34969   0.01574  -0.18353
C          C       0.11428   0.59518   0.61660   0.05263
C          C       0.88446   0.39857   0.60486   0.04997
C          C       0.88769   0.60273   0.88217   0.05420
C          C       0.11397   0.40430   0.88457   0.04866
C          C       0.07104   0.60705   0.59023  -0.12877
C          C       0.92708   0.38604   0.57912  -0.12495
C          C       0.93084   0.61686   0.89633  -0.12684
C          C       0.07088   0.39369   0.90466  -0.12670
C          C       0.03809   0.57769   0.62403  -0.18855
C          C       0.96082   0.41754   0.61693  -0.18063
C          C       0.96363   0.58627   0.85399  -0.17705
C          C       0.03808   0.42399   0.86523  -0.18769
C          C       0.04854   0.53559   0.68783   0.10368
C          C       0.95173   0.46317   0.68192   0.09894
C          C       0.95329   0.53973   0.79710   0.09874
C          C       0.04850   0.46577   0.80240   0.10194
C          C       0.09163   0.52236   0.71453  -0.00917
C          C       0.90915   0.47673   0.70818  -0.01299
C          C       0.91011   0.52483   0.77980  -0.01551
C          C       0.09157   0.47780   0.78348  -0.01139
C          C       0.12411   0.55209   0.67715  -0.16260
C          C       0.87587   0.44459   0.66871  -0.16203
C          C       0.87776   0.55609   0.82369  -0.15941
C          C       0.12398   0.44714   0.82592  -0.15761
C          C       0.50226   0.97710   0.76524   0.00222
C          C       0.50260   0.02587   0.76650   0.00391
N          N       0.24389   0.26725   0.47272  -0.27760
N          N       0.75800   0.73746   0.48791  -0.27521
N          N       0.75037   0.26315   0.03101  -0.27079
N          N       0.24340   0.72839   0.01813  -0.27697
N          N       0.02374   0.50033   0.24102   0.01566
N          N       0.97967   0.50125   0.23547   0.01404
N          N       0.24359   0.26783   0.96082  -0.27678
N          N       0.75638   0.73741   0.98526  -0.27313
N          N       0.75168   0.26106   0.51846  -0.27379
N          N       0.24336   0.72793   0.51756  -0.27625
N          N       0.02254   0.50100   0.74210   0.01146
N          N       0.97849   0.50167   0.73818   0.01743

