data_crystal

_audit_creation_method 'AiiDA-DDEC plugin'

_cell_length_a        36.58988
_cell_length_b        36.71715
_cell_length_c         8.13789

_cell_angle_alpha     89.62129
_cell_angle_beta     90.31833
_cell_angle_gamma     120.00476

_symmetry_space_group_name_Hall 'P 1'
_symmetry_space_group_name_H-M  'P 1'

loop_
_symmetry_equiv_pos_as_xyz
 'x,y,z'

loop_
_atom_site_label
_atom_site_type_symbol
_atom_site_fract_x
_atom_site_fract_y
_atom_site_fract_z
_atom_site_charge
H          H       0.95440   0.52181   0.38557   0.13739
H          H       0.47642   0.42997   0.36602   0.13739
H          H       0.56667   0.04795   0.39169   0.13589
H          H       0.04712   0.47683   0.12153   0.13663
H          H       0.52163   0.56592   0.08167   0.13734
H          H       0.43065   0.95261   0.11651   0.13689
H          H       0.89654   0.41734   0.17990   0.06420
H          H       0.58415   0.47889   0.18426   0.06153
H          H       0.51883   0.10328   0.17212   0.06677
H          H       0.10464   0.58019   0.33550   0.06442
H          H       0.41604   0.51838   0.28529   0.06362
H          H       0.48136   0.89785   0.32279   0.06574
H          H       0.83329   0.48480   0.29804   0.12158
H          H       0.51587   0.34989   0.31215   0.12172
H          H       0.64841   0.16577   0.33020   0.12081
H          H       0.16831   0.51480   0.18527   0.12142
H          H       0.48524   0.64908   0.17633   0.12190
H          H       0.34938   0.83258   0.20683   0.11994
H          H       0.84349   0.37413   0.37206   0.11080
H          H       0.62728   0.46978   0.39214   0.11153
H          H       0.52789   0.15949   0.34130   0.11356
H          H       0.15804   0.62638   0.15997   0.11192
H          H       0.37205   0.53045   0.09660   0.11201
H          H       0.47047   0.84233   0.13663   0.11267
H          H       0.76464   0.32994   0.37696   0.11205
H          H       0.67104   0.43473   0.39549   0.11288
H          H       0.56433   0.23790   0.34563   0.11069
H          H       0.23689   0.67068   0.16444   0.11149
H          H       0.32942   0.56650   0.10805   0.11246
H          H       0.43574   0.76381   0.13768   0.11128
H          H       0.75423   0.44000   0.30255   0.11138
H          H       0.56033   0.31527   0.31233   0.11234
H          H       0.68467   0.24469   0.32940   0.11107
H          H       0.24735   0.55970   0.18987   0.11115
H          H       0.44169   0.68452   0.19308   0.11184
H          H       0.31538   0.75398   0.21153   0.11069
H          H       0.95212   0.52078   0.88581   0.13675
H          H       0.47205   0.42854   0.86607   0.13838
H          H       0.57169   0.04511   0.89143   0.13918
H          H       0.04586   0.47703   0.62153   0.13755
H          H       0.52304   0.56651   0.59041   0.13753
H          H       0.43332   0.95451   0.62138   0.13733
H          H       0.89491   0.41538   0.68965   0.06625
H          H       0.58097   0.47569   0.69311   0.06640
H          H       0.52644   0.10268   0.66251   0.06304
H          H       0.10245   0.58197   0.82649   0.06493
H          H       0.41670   0.52153   0.78912   0.06199
H          H       0.47653   0.89521   0.84283   0.06411
H          H       0.83333   0.48439   0.80580   0.12096
H          H       0.51467   0.34731   0.73894   0.12212
H          H       0.65547   0.16930   0.84312   0.12022
H          H       0.16721   0.51596   0.71231   0.12115
H          H       0.48584   0.65245   0.69232   0.12190
H          H       0.35090   0.83486   0.63564   0.11984
H          H       0.84099   0.37257   0.88782   0.11183
H          H       0.61608   0.46071   0.94385   0.10884
H          H       0.53231   0.15664   0.80223   0.11106
H          H       0.15718   0.62694   0.64504   0.11166
H          H       0.37476   0.53324   0.59983   0.11174
H          H       0.47138   0.84198   0.68546   0.11216
H          H       0.76217   0.32995   0.89309   0.11141
H          H       0.66207   0.42821   0.94695   0.11322
H          H       0.56523   0.23475   0.80010   0.11169
H          H       0.23585   0.67098   0.64534   0.11104
H          H       0.33037   0.56738   0.61503   0.11237
H          H       0.43537   0.76351   0.68717   0.11129
H          H       0.75411   0.44097   0.80760   0.11290
H          H       0.56113   0.31519   0.74045   0.11159
H          H       0.68792   0.24786   0.83966   0.10966
H          H       0.24614   0.56065   0.71288   0.11136
H          H       0.44110   0.68660   0.70381   0.11042
H          H       0.31505   0.75594   0.64401   0.11091
C          C       0.97507   0.51220   0.32910  -0.15728
C          C       0.48614   0.45994   0.30576  -0.15412
C          C       0.53721   0.02665   0.32996  -0.15849
C          C       0.02644   0.48628   0.17915  -0.15585
C          C       0.51225   0.53631   0.14451  -0.15412
C          C       0.46082   0.97389   0.17369  -0.15633
C          C       0.95607   0.47262   0.25167   0.02859
C          C       0.52680   0.48136   0.23606   0.02653
C          C       0.51574   0.04468   0.25015   0.02658
C          C       0.04541   0.52581   0.25673   0.02681
C          C       0.47206   0.51545   0.21849   0.02653
C          C       0.48265   0.95590   0.25118   0.02624
C          C       0.98302   0.46049   0.17709   0.07148
C          C       0.53882   0.51965   0.15398   0.07047
C          C       0.47715   0.01703   0.17248   0.07072
C          C       0.01848   0.53792   0.33142   0.07233
C          C       0.45975   0.47678   0.29786   0.07177
C          C       0.52116   0.98356   0.32940   0.07368
C          C       0.91014   0.44665   0.25032   0.07648
C          C       0.55403   0.46298   0.25025   0.07604
C          C       0.53445   0.09040   0.24898   0.07737
C          C       0.09128   0.55190   0.25884   0.07695
C          C       0.44556   0.53471   0.21553   0.07532
C          C       0.46429   0.91022   0.25203   0.07709
C          C       0.81789   0.45086   0.31406  -0.16131
C          C       0.54992   0.36804   0.32809  -0.16093
C          C       0.63046   0.18206   0.33170  -0.15959
C          C       0.18368   0.54891   0.18122  -0.16239
C          C       0.45108   0.63141   0.16310  -0.16271
C          C       0.36810   0.81728   0.19370  -0.15990
C          C       0.84327   0.43216   0.32898   0.21827
C          C       0.56893   0.41196   0.34377   0.21801
C          C       0.58607   0.15763   0.33065   0.21891
C          C       0.15828   0.56772   0.17752   0.21828
C          C       0.43140   0.58758   0.14184   0.21897
C          C       0.41221   0.84260   0.17749   0.21924
C          C       0.82381   0.38828   0.35279  -0.18296
C          C       0.61283   0.43611   0.37094  -0.18300
C          C       0.56217   0.17811   0.33563  -0.18285
C          C       0.17770   0.61194   0.16996  -0.18018
C          C       0.38724   0.56406   0.12023  -0.18170
C          C       0.43662   0.82301   0.15632  -0.18362
C          C       0.78006   0.36373   0.35694  -0.08455
C          C       0.63719   0.41672   0.37370  -0.08541
C          C       0.58237   0.22178   0.33875  -0.08499
C          C       0.22141   0.63657   0.17041  -0.08472
C          C       0.36345   0.58396   0.12549  -0.08686
C          C       0.41741   0.77938   0.15537  -0.08539
C          C       0.75472   0.38226   0.33757  -0.00647
C          C       0.61844   0.37315   0.34872  -0.00728
C          C       0.62671   0.24615   0.33514  -0.00554
C          C       0.24673   0.61778   0.17767  -0.00669
C          C       0.38295   0.62747   0.15353  -0.00616
C          C       0.37356   0.75420   0.17649  -0.00621
C          C       0.77426   0.42613   0.31637  -0.08993
C          C       0.57445   0.34904   0.32777  -0.08819
C          C       0.65044   0.22563   0.33103  -0.08795
C          C       0.22729   0.57367   0.18373  -0.08837
C          C       0.42706   0.65092   0.17182  -0.08800
C          C       0.34925   0.77381   0.19585  -0.08958
C          C       0.70827   0.35648   0.34045   0.37717
C          C       0.64410   0.35249   0.34519   0.37560
C          C       0.64800   0.29247   0.33832   0.37651
C          C       0.29310   0.64369   0.17490   0.37610
C          C       0.35748   0.64826   0.16252   0.37463
C          C       0.35303   0.70793   0.17494   0.37726
C          C       0.97316   0.51167   0.82903  -0.15665
C          C       0.48302   0.45893   0.80723  -0.15469
C          C       0.54121   0.02496   0.83398  -0.15742
C          C       0.02497   0.48628   0.67868  -0.15662
C          C       0.51216   0.53637   0.65120  -0.15471
C          C       0.46343   0.97462   0.68117  -0.15666
C          C       0.95448   0.47181   0.75402   0.02644
C          C       0.52390   0.47924   0.73915   0.02694
C          C       0.52124   0.04439   0.75264   0.02932
C          C       0.04367   0.52607   0.75452   0.02665
C          C       0.47169   0.51654   0.72298   0.02837
C          C       0.48353   0.95516   0.76094   0.02781
C          C       0.98157   0.46005   0.67837   0.07247
C          C       0.53745   0.51820   0.65988   0.07186
C          C       0.48181   0.01793   0.67814   0.07154
C          C       0.01651   0.53792   0.82922   0.07235
C          C       0.45786   0.47720   0.79972   0.07060
C          C       0.52263   0.98153   0.83805   0.07044
C          C       0.90860   0.44512   0.75730   0.07648
C          C       0.54991   0.45936   0.75214   0.07771
C          C       0.54146   0.09008   0.74400   0.07651
C          C       0.08954   0.55276   0.75572   0.07598
C          C       0.44651   0.53730   0.72103   0.07703
C          C       0.46325   0.90939   0.76032   0.07837
C          C       0.81724   0.45051   0.82368  -0.16180
C          C       0.54694   0.36468   0.78411  -0.16678
C          C       0.63603   0.18390   0.83131  -0.16068
C          C       0.18263   0.54993   0.69807  -0.16086
C          C       0.45177   0.63422   0.67676  -0.16221
C          C       0.36889   0.81879   0.65028  -0.15970
C          C       0.84202   0.43118   0.84017   0.21791
C          C       0.56295   0.40651   0.83503   0.21794
C          C       0.59197   0.15777   0.81799   0.21874
C          C       0.15714   0.56848   0.68212   0.21906
C          C       0.43300   0.59058   0.65174   0.21802
C          C       0.41302   0.84338   0.66765   0.21870
C          C       0.82196   0.38741   0.86759  -0.18221
C          C       0.60452   0.42918   0.89620  -0.18675
C          C       0.56648   0.17653   0.80656  -0.17812
C          C       0.17665   0.61250   0.66295  -0.18350
C          C       0.38900   0.56659   0.62703  -0.18203
C          C       0.43712   0.82316   0.67917  -0.17963
C          C       0.77817   0.36369   0.87178  -0.08495
C          C       0.63007   0.41105   0.89862  -0.08588
C          C       0.58460   0.22000   0.80671  -0.08484
C          C       0.22043   0.63709   0.66182  -0.08562
C          C       0.36432   0.58555   0.63391  -0.08429
C          C       0.41726   0.77957   0.67935  -0.08515
C          C       0.75337   0.38274   0.84830  -0.00607
C          C       0.61479   0.37005   0.83969  -0.01143
C          C       0.62860   0.24601   0.81832  -0.00358
C          C       0.24586   0.61858   0.67968  -0.00623
C          C       0.38291   0.62887   0.66438  -0.00796
C          C       0.37304   0.75502   0.66961  -0.00365
C          C       0.77353   0.42653   0.82500  -0.08905
C          C       0.57276   0.34702   0.78432  -0.08831
C          C       0.65400   0.22732   0.82951  -0.09042
C          C       0.22626   0.57468   0.69882  -0.08868
C          C       0.42698   0.65296   0.68440  -0.08802
C          C       0.34914   0.77523   0.65444  -0.08897
C          C       0.70693   0.35688   0.84501   0.37606
C          C       0.64188   0.35090   0.83587   0.37857
C          C       0.64799   0.29214   0.82483   0.37496
C          C       0.29232   0.64447   0.67546   0.37700
C          C       0.35685   0.64911   0.67100   0.37753
C          C       0.35221   0.70874   0.67250   0.37566
Br         Br      0.96077   0.40674   0.07012  -0.06952
Br         Br      0.59362   0.55116   0.05252  -0.06988
Br         Br      0.44429   0.03818   0.06550  -0.07257
Br         Br      0.04097   0.59209   0.43500  -0.06954
Br         Br      0.40508   0.44512   0.39980  -0.06934
Br         Br      0.55392   0.96256   0.43833  -0.06819
Br         Br      0.95913   0.40592   0.57413  -0.06986
Br         Br      0.59261   0.54888   0.56075  -0.06650
Br         Br      0.45068   0.04099   0.57079  -0.06614
Br         Br      0.03860   0.59206   0.93293  -0.06998
Br         Br      0.40266   0.44654   0.89905  -0.06882
Br         Br      0.55336   0.95803   0.94596  -0.07053
N          N       0.88702   0.45854   0.32613  -0.26353
N          N       0.54225   0.42890   0.33357  -0.26422
N          N       0.56843   0.11394   0.33133  -0.26686
N          N       0.11454   0.54118   0.17724  -0.26383
N          N       0.45756   0.56999   0.14085  -0.26374
N          N       0.42911   0.88621   0.17748  -0.26710
N          N       0.68639   0.37707   0.34467  -0.41374
N          N       0.62342   0.31014   0.34174  -0.41331
N          N       0.69060   0.31426   0.33740  -0.41397
N          N       0.31521   0.62344   0.16564  -0.41288
N          N       0.37794   0.69064   0.16675  -0.41399
N          N       0.31050   0.68581   0.18036  -0.41400
N          N       0.88575   0.45723   0.83360  -0.26336
N          N       0.53627   0.42358   0.82504  -0.25832
N          N       0.57551   0.11420   0.82517  -0.26996
N          N       0.11339   0.54164   0.68077  -0.26543
N          N       0.45936   0.57310   0.64898  -0.26432
N          N       0.43079   0.88708   0.66820  -0.26783
N          N       0.68404   0.37648   0.84820  -0.41619
N          N       0.62242   0.30871   0.82032  -0.41356
N          N       0.69034   0.31491   0.83695  -0.41242
N          N       0.31454   0.62421   0.67258  -0.41451
N          N       0.37717   0.69146   0.67336  -0.41262
N          N       0.30967   0.68665   0.67342  -0.41447

