data_crystal

_audit_creation_method 'AiiDA-DDEC plugin'

_cell_length_a        37.34319
_cell_length_b        37.46684
_cell_length_c         8.77484

_cell_angle_alpha     88.55007
_cell_angle_beta     91.02764
_cell_angle_gamma     120.23621

_symmetry_space_group_name_Hall 'P 1'
_symmetry_space_group_name_H-M  'P 1'

loop_
_symmetry_equiv_pos_as_xyz
 'x,y,z'

loop_
_atom_site_label
_atom_site_type_symbol
_atom_site_fract_x
_atom_site_fract_y
_atom_site_fract_z
_atom_site_charge
H          H       0.30373   0.58944   0.37706   0.10415
H          H       0.41213   0.71066   0.37804   0.10346
H          H       0.29077   0.69706   0.37644   0.10390
H          H       0.34745   0.57913   0.04102   0.10722
H          H       0.42537   0.76796   0.02903   0.10891
H          H       0.23449   0.65713   0.02840   0.10795
H          H       0.38903   0.54457   0.02557   0.13419
H          H       0.45975   0.84444   0.01657   0.13403
H          H       0.15785   0.61430   0.01128   0.13491
H          H       0.47532   0.64143   0.21187   0.11052
H          H       0.35851   0.82945   0.19883   0.11079
H          H       0.16861   0.52909   0.20061   0.11027
H          H       0.43323   0.67498   0.22524   0.10809
H          H       0.32690   0.75371   0.21392   0.11104
H          H       0.24482   0.57063   0.21370   0.10835
H          H       0.43755   0.45961   0.41691   0.12678
H          H       0.53589   0.97718   0.39494   0.12768
H          H       0.02471   0.56168   0.42884   0.12618
H          H       0.47636   0.42687   0.31528   0.11247
H          H       0.56593   0.04826   0.28064   0.11240
H          H       0.95153   0.52253   0.33163   0.11312
H          H       0.70080   0.40805   0.19814   0.10524
H          H       0.58805   0.29061   0.18745   0.10502
H          H       0.70586   0.29609   0.17927   0.10462
H          H       0.65613   0.42232   0.04363   0.11095
H          H       0.57421   0.23585   0.02431   0.10797
H          H       0.76557   0.34247   0.04244   0.11106
H          H       0.61971   0.46157   0.07656   0.13083
H          H       0.53353   0.15930   0.04432   0.13090
H          H       0.84188   0.38129   0.07410   0.13052
H          H       0.53741   0.36932   0.39803   0.11818
H          H       0.62472   0.16091   0.35426   0.11897
H          H       0.83157   0.46231   0.38567   0.12126
H          H       0.57433   0.33041   0.36771   0.10730
H          H       0.66506   0.23728   0.33661   0.11177
H          H       0.75529   0.42297   0.35735   0.11026
H          H       0.98231   0.37466   0.11325   0.09796
H          H       0.63001   0.60945   0.12714   0.09848
H          H       0.37889   0.01152   0.11376   0.09909
H          H       0.99020   0.39285   0.30451   0.08044
H          H       0.60985   0.59565   0.31679   0.08253
H          H       0.39450   0.00617   0.30308   0.08073
H          H       0.04473   0.44227   0.03096   0.08162
H          H       0.56326   0.60619   0.04196   0.08453
H          H       0.38426   0.94993   0.03617   0.08521
H          H       0.05960   0.41870   0.18083   0.09626
H          H       0.58648   0.64223   0.19410   0.09526
H          H       0.34917   0.93549   0.19369   0.09722
H          H       0.48399   0.58661   0.26680   0.26659
H          H       0.41028   0.89286   0.25707   0.26162
H          H       0.10553   0.51864   0.26552   0.26010
H          H       0.55373   0.44619   0.38262   0.28484
H          H       0.54996   0.10342   0.34517   0.28303
H          H       0.89263   0.44574   0.38059   0.28264
H          H       0.30231   0.59188   0.89836   0.10297
H          H       0.41234   0.71166   0.88272   0.10263
H          H       0.29239   0.70135   0.88653   0.10266
H          H       0.34867   0.57791   0.52790   0.10824
H          H       0.42259   0.76709   0.52702   0.10800
H          H       0.23587   0.65054   0.53469   0.10770
H          H       0.39074   0.54387   0.51326   0.13529
H          H       0.45475   0.84340   0.51101   0.13444
H          H       0.15918   0.60910   0.52052   0.13398
H          H       0.47290   0.64100   0.71917   0.11094
H          H       0.36280   0.83465   0.71725   0.11095
H          H       0.17026   0.52879   0.73006   0.11193
H          H       0.43103   0.67480   0.73215   0.11079
H          H       0.32897   0.75872   0.72824   0.11173
H          H       0.24632   0.57173   0.74461   0.11226
H          H       0.43770   0.46001   0.91233   0.12682
H          H       0.54419   0.97907   0.89712   0.12635
H          H       0.02244   0.56031   0.91172   0.12782
H          H       0.47842   0.42977   0.80796   0.11194
H          H       0.57437   0.05105   0.78761   0.11141
H          H       0.95059   0.51900   0.80564   0.11256
H          H       0.70365   0.41180   0.68779   0.10400
H          H       0.58988   0.29500   0.67480   0.10518
H          H       0.70681   0.29879   0.67649   0.10481
H          H       0.66105   0.42925   0.54420   0.10785
H          H       0.57605   0.23630   0.51980   0.10771
H          H       0.76493   0.34178   0.53773   0.10787
H          H       0.62338   0.46731   0.57519   0.13060
H          H       0.53848   0.15979   0.54573   0.13078
H          H       0.84124   0.37816   0.56545   0.13005
H          H       0.53611   0.36975   0.86973   0.11984
H          H       0.62998   0.16804   0.86979   0.11807
H          H       0.83586   0.46323   0.87164   0.11947
H          H       0.57433   0.33219   0.84183   0.11080
H          H       0.66710   0.24434   0.84574   0.11097
H          H       0.75948   0.42625   0.84690   0.11252
H          H       0.98936   0.37404   0.61613   0.09721
H          H       0.62802   0.61519   0.61963   0.09753
H          H       0.38777   0.01577   0.62337   0.09610
H          H       0.99728   0.39192   0.80755   0.07907
H          H       0.61067   0.60332   0.81327   0.08000
H          H       0.40114   0.00917   0.81479   0.08099
H          H       0.04891   0.44413   0.53281   0.08490
H          H       0.55831   0.60623   0.54329   0.08564
H          H       0.39502   0.95475   0.54689   0.08469
H          H       0.06635   0.42169   0.67862   0.09828
H          H       0.58193   0.64504   0.68613   0.09705
H          H       0.35760   0.93945   0.69676   0.09610
H          H       0.48353   0.58858   0.78294   0.25866
H          H       0.41502   0.89712   0.78122   0.25756
H          H       0.10721   0.51932   0.77667   0.26366
H          H       0.54967   0.44335   0.86834   0.28575
H          H       0.55505   0.10756   0.85583   0.28581
H          H       0.89517   0.45191   0.86095   0.28525
C          C       0.29193   0.64015   0.37814   0.08241
C          C       0.36101   0.64785   0.37918   0.08088
C          C       0.35363   0.70913   0.37749   0.08103
C          C       0.31763   0.62286   0.37848  -0.19235
C          C       0.37857   0.69094   0.37886  -0.19229
C          C       0.31042   0.68333   0.37784  -0.19213
C          C       0.24629   0.61395   0.37510   0.04363
C          C       0.38738   0.62885   0.37672   0.04341
C          C       0.37233   0.75453   0.37199   0.04427
C          C       0.37611   0.59169   0.45642  -0.11600
C          C       0.40872   0.78069   0.45324  -0.11596
C          C       0.22123   0.62422   0.45952  -0.11641
C          C       0.39962   0.57236   0.45029  -0.17945
C          C       0.42696   0.82361   0.44611  -0.17761
C          C       0.17809   0.60101   0.45362  -0.18006
C          C       0.43571   0.59019   0.36150   0.23311
C          C       0.40875   0.84152   0.35433   0.23338
C          C       0.15867   0.56635   0.35981   0.23333
C          C       0.44790   0.62786   0.28363  -0.19996
C          C       0.37213   0.81570   0.27328  -0.19999
C          C       0.18337   0.55523   0.27672  -0.19882
C          C       0.42415   0.64679   0.29146  -0.12321
C          C       0.35427   0.77302   0.28223  -0.12406
C          C       0.22637   0.57862   0.28450  -0.12449
C          C       0.45468   0.53529   0.40359   0.47885
C          C       0.46062   0.91647   0.39721   0.47846
C          C       0.08487   0.54772   0.40090   0.47813
C          C       0.48197   0.52038   0.34084  -0.11708
C          C       0.47385   0.95856   0.32827  -0.11759
C          C       0.04154   0.51968   0.34209  -0.11784
C          C       0.46687   0.47783   0.35809  -0.09200
C          C       0.51637   0.98728   0.33781  -0.08967
C          C       0.01328   0.53314   0.36705  -0.09437
C          C       0.48864   0.45996   0.30243  -0.11777
C          C       0.53274   0.02676   0.27497  -0.11746
C          C       0.97272   0.51113   0.31385  -0.11973
C          C       0.70876   0.35500   0.18798   0.07999
C          C       0.64171   0.35185   0.19152   0.08078
C          C       0.64446   0.28812   0.17991   0.07918
C          C       0.68517   0.37457   0.19182  -0.19095
C          C       0.62174   0.30866   0.18548  -0.19091
C          C       0.68793   0.31168   0.18114  -0.19015
C          C       0.75454   0.37952   0.19830   0.04936
C          C       0.61809   0.37361   0.20380   0.04995
C          C       0.62234   0.24241   0.18062   0.04776
C          C       0.63045   0.41087   0.12303  -0.12643
C          C       0.58514   0.21956   0.09852  -0.12203
C          C       0.77982   0.36836   0.11967  -0.12589
C          C       0.60996   0.43294   0.14002  -0.17371
C          C       0.56219   0.17654   0.10817  -0.17418
C          C       0.82283   0.39024   0.13601  -0.17225
C          C       0.57629   0.41797   0.23972   0.22516
C          C       0.57623   0.15522   0.20229   0.22635
C          C       0.84176   0.42419   0.23280   0.22430
C          C       0.56317   0.38052   0.31922  -0.18069
C          C       0.61403   0.17752   0.28076  -0.18228
C          C       0.81703   0.43634   0.30893  -0.18145
C          C       0.58381   0.35861   0.30107  -0.12539
C          C       0.63676   0.22046   0.26977  -0.12652
C          C       0.77409   0.41430   0.29173  -0.12743
C          C       0.54978   0.46474   0.16771   0.50435
C          C       0.52571   0.08228   0.13579   0.49765
C          C       0.91579   0.45211   0.16898   0.50199
C          C       0.52676   0.48422   0.22978  -0.09427
C          C       0.50709   0.03952   0.20328  -0.09705
C          C       0.95860   0.47425   0.23551  -0.09247
C          C       0.54291   0.52699   0.21438   0.12113
C          C       0.46424   0.01149   0.19538   0.11867
C          C       0.98599   0.45944   0.21340   0.12016
C          C       0.52035   0.54487   0.26800   0.09724
C          C       0.44792   0.97106   0.25532   0.09284
C          C       0.02726   0.48225   0.26524   0.09736
C          C       0.99472   0.40232   0.18332  -0.02702
C          C       0.60159   0.59312   0.19486  -0.02855
C          C       0.39662   0.00068   0.18182  -0.02892
C          C       0.04012   0.43214   0.15128  -0.02659
C          C       0.57260   0.60971   0.16275  -0.02897
C          C       0.38136   0.95539   0.15671  -0.02959
C          C       0.29201   0.64362   0.89278   0.07992
C          C       0.36029   0.64943   0.89152   0.08108
C          C       0.35472   0.71184   0.88595   0.08138
C          C       0.31690   0.62538   0.89546  -0.19141
C          C       0.37874   0.69263   0.88688  -0.19272
C          C       0.31139   0.68689   0.88882  -0.19232
C          C       0.24636   0.61772   0.88843   0.04377
C          C       0.38585   0.62955   0.88763   0.04411
C          C       0.37462   0.75737   0.87995   0.04324
C          C       0.37458   0.59248   0.96802  -0.11499
C          C       0.41185   0.78251   0.95857  -0.11765
C          C       0.22055   0.62927   0.96093  -0.11520
C          C       0.39787   0.57289   0.96150  -0.17822
C          C       0.43132   0.82551   0.95361  -0.17704
C          C       0.17744   0.60538   0.95313  -0.17588
C          C       0.43376   0.59039   0.87161   0.23421
C          C       0.41350   0.84468   0.86678   0.23585
C          C       0.15893   0.56871   0.86987   0.23304
C          C       0.44570   0.62776   0.79190  -0.20020
C          C       0.37608   0.81992   0.78822  -0.20069
C          C       0.18439   0.55655   0.79816  -0.19870
C          C       0.42215   0.64688   0.79979  -0.12547
C          C       0.35701   0.77709   0.79479  -0.12592
C          C       0.22726   0.58068   0.80714  -0.12490
C          C       0.45229   0.53482   0.90508   0.47908
C          C       0.46912   0.91867   0.89883   0.48173
C          C       0.08423   0.54818   0.90117   0.47866
C          C       0.48138   0.52176   0.84389  -0.11274
C          C       0.48212   0.96126   0.83554  -0.11180
C          C       0.04183   0.51908   0.83692  -0.11214
C          C       0.46741   0.47936   0.85727  -0.09249
C          C       0.52475   0.98974   0.84313  -0.09457
C          C       0.01247   0.53160   0.85271  -0.09629
C          C       0.49025   0.46284   0.79973  -0.11464
C          C       0.54116   0.02958   0.78333  -0.12192
C          C       0.97258   0.50829   0.79499  -0.11186
C          C       0.71065   0.35809   0.67966   0.07985
C          C       0.64410   0.35599   0.67950   0.07909
C          C       0.64587   0.29167   0.67395   0.08116
C          C       0.68762   0.37828   0.68143  -0.19077
C          C       0.62360   0.31268   0.67460  -0.19195
C          C       0.68928   0.31479   0.67539  -0.19001
C          C       0.75638   0.38125   0.68979   0.04600
C          C       0.62059   0.37790   0.69081   0.04858
C          C       0.62426   0.24602   0.68121   0.04843
C          C       0.63397   0.41633   0.61743  -0.12115
C          C       0.58770   0.22145   0.59813  -0.12269
C          C       0.78028   0.36807   0.61289  -0.11947
C          C       0.61273   0.43777   0.63310  -0.17592
C          C       0.56651   0.17843   0.61132  -0.17120
C          C       0.82331   0.38858   0.62667  -0.17669
C          C       0.57714   0.42096   0.72409   0.22749
C          C       0.58158   0.15898   0.71053   0.22501
C          C       0.84363   0.42329   0.71972   0.22633
C          C       0.56324   0.38246   0.79692  -0.18171
C          C       0.61850   0.18311   0.79184  -0.18116
C          C       0.82019   0.43696   0.79656  -0.18209
C          C       0.58465   0.36130   0.78025  -0.12674
C          C       0.63948   0.22597   0.77717  -0.12746
C          C       0.77724   0.41624   0.78161  -0.12805
C          C       0.55241   0.47017   0.66257   0.49940
C          C       0.53344   0.08523   0.64767   0.50585
C          C       0.91705   0.44606   0.65918   0.49440
C          C       0.52855   0.48822   0.72951  -0.09431
C          C       0.51537   0.04268   0.71590  -0.09748
C          C       0.95984   0.47069   0.72355  -0.09779
C          C       0.54379   0.53099   0.71935   0.12117
C          C       0.47242   0.01505   0.71071   0.12378
C          C       0.98838   0.45687   0.71104   0.12212
C          C       0.52001   0.54747   0.77396   0.09476
C          C       0.45603   0.97444   0.76844   0.09703
C          C       0.02936   0.48147   0.76382   0.09431
C          C       0.00065   0.40150   0.68657  -0.02725
C          C       0.60073   0.59857   0.69300  -0.02840
C          C       0.40481   0.00459   0.69391  -0.02592
C          C       0.04527   0.43343   0.65235  -0.02635
C          C       0.56942   0.61227   0.66193  -0.02752
C          C       0.39029   0.95957   0.66630  -0.02881
N          N       0.46025   0.57199   0.34220  -0.37419
N          N       0.42544   0.88433   0.33397  -0.36801
N          N       0.11547   0.54196   0.34129  -0.36995
N          N       0.55572   0.44016   0.26928  -0.39053
N          N       0.55304   0.11208   0.23086  -0.39005
N          N       0.88493   0.44538   0.26607  -0.39213
N          N       0.45882   0.57270   0.85348  -0.37093
N          N       0.43097   0.88763   0.85018  -0.37088
N          N       0.11599   0.54321   0.84898  -0.37421
N          N       0.55543   0.44195   0.75431  -0.39047
N          N       0.56016   0.11581   0.74150  -0.38901
N          N       0.88678   0.44449   0.74812  -0.38504
O          O       0.42400   0.51181   0.99264  -0.46609
O          O       0.49231   0.91277   0.98474  -0.46810
O          O       0.08924   0.57498   0.99220  -0.46710
O          O       0.56061   0.46981   0.03182  -0.50114
O          O       0.51807   0.08893   0.00266  -0.49968
O          O       0.91042   0.44283   0.03192  -0.50056
O          O       0.97096   0.42172   0.14435  -0.17997
O          O       0.58185   0.55065   0.15157  -0.18187
O          O       0.43885   0.02508   0.13288  -0.18194
O          O       0.05469   0.46767   0.24766  -0.20424
O          O       0.53618   0.58743   0.25704  -0.20752
O          O       0.40548   0.94280   0.25010  -0.20482
O          O       0.42833   0.51440   0.50070  -0.46577
O          O       0.48152   0.91213   0.49900  -0.46547
O          O       0.09154   0.57459   0.49427  -0.46663
O          O       0.56659   0.47959   0.53081  -0.49927
O          O       0.52543   0.09093   0.51403  -0.49765
O          O       0.91063   0.43004   0.53120  -0.49663
O          O       0.97450   0.41835   0.65108  -0.17807
O          O       0.58269   0.55573   0.65806  -0.18041
O          O       0.44752   0.02958   0.65187  -0.17744
O          O       0.05797   0.46814   0.75109  -0.20570
O          O       0.53482   0.58991   0.76419  -0.20481
O          O       0.41332   0.94683   0.76536  -0.20461

