data_crystal

_audit_creation_method 'AiiDA-DDEC plugin'

_cell_length_a        36.97816
_cell_length_b        37.39153
_cell_length_c         8.04343

_cell_angle_alpha     86.35165
_cell_angle_beta     94.81720
_cell_angle_gamma     120.39472

_symmetry_space_group_name_Hall 'P 1'
_symmetry_space_group_name_H-M  'P 1'

loop_
_symmetry_equiv_pos_as_xyz
 'x,y,z'

loop_
_atom_site_label
_atom_site_type_symbol
_atom_site_fract_x
_atom_site_fract_y
_atom_site_fract_z
_atom_site_charge
H          H       0.30532   0.59026   0.15518   0.10106
H          H       0.41194   0.71390   0.16151   0.10326
H          H       0.28724   0.69501   0.15731   0.10182
H          H       0.35096   0.58175   0.00531   0.10545
H          H       0.42080   0.77227   0.01145   0.10301
H          H       0.22856   0.65001  -0.00339   0.10432
H          H       0.39737   0.55198   0.03043   0.10769
H          H       0.45017   0.84729   0.03108   0.10569
H          H       0.15211   0.60482   0.01384   0.10903
H          H       0.48583   0.65174   0.34403   0.11990
H          H       0.35063   0.82532   0.33722   0.11774
H          H       0.17219   0.51883   0.33077   0.11910
H          H       0.43857   0.68110   0.32406   0.10675
H          H       0.32118   0.74941   0.31932   0.10615
H          H       0.24947   0.56494   0.31743   0.10562
H          H       0.42503   0.52215   0.20574   0.05527
H          H       0.47814   0.90520   0.14766   0.05438
H          H       0.09721   0.57716   0.17074   0.05516
H          H       0.43199   0.46603   0.19037   0.10715
H          H       0.53129   0.97016   0.12980   0.10692
H          H       0.03153   0.56816   0.16269   0.10661
H          H       0.47225   0.42854   0.23829   0.12183
H          H       0.56672   0.04628   0.17709   0.12495
H          H       0.95565   0.52779   0.22521   0.12183
H          H       0.69868   0.40732   0.34684   0.10168
H          H       0.58836   0.28640   0.32682   0.10146
H          H       0.71050   0.29903   0.32925   0.10097
H          H       0.65329   0.41986   0.17369   0.10497
H          H       0.57558   0.23448   0.15086   0.10732
H          H       0.76520   0.34249   0.19164   0.10421
H          H       0.60936   0.45231   0.16681   0.10901
H          H       0.54238   0.15832   0.13420   0.10775
H          H       0.84175   0.38734   0.18599   0.10703
H          H       0.52209   0.35271   0.47557   0.11949
H          H       0.64294   0.16151   0.45396   0.11991
H          H       0.83678   0.47738   0.47528   0.12051
H          H       0.56681   0.32055   0.48662   0.10250
H          H       0.67515   0.23762   0.47838   0.10673
H          H       0.75993   0.43125   0.48893   0.10470
H          H       0.58871   0.48232   0.34767   0.06566
H          H       0.51290   0.09911   0.33322   0.06940
H          H       0.90087   0.41455   0.35961   0.06808
H          H       0.98044   0.38649   0.19363   0.07468
H          H       0.61992   0.59514   0.20640   0.07310
H          H       0.39606   0.01204   0.21351   0.07467
H          H       0.97031   0.36197   0.39712   0.09307
H          H       0.64461   0.60341   0.41236   0.09564
H          H       0.39190   0.02440   0.41929   0.09371
H          H       0.04931   0.40402   0.35116   0.09806
H          H       0.60435   0.64265   0.35194   0.10015
H          H       0.35522   0.94556   0.37462   0.10099
H          H       0.04144   0.42877   0.01734   0.08821
H          H       0.57324   0.60487   0.02484   0.08350
H          H       0.39674   0.96729   0.03467   0.07877
H          H       0.30227   0.59327   0.64715   0.10111
H          H       0.41062   0.71556   0.65119   0.10283
H          H       0.28687   0.69958   0.64388   0.10067
H          H       0.34548   0.58295   0.49436   0.10287
H          H       0.42467   0.77559   0.52865   0.10478
H          H       0.22628   0.65381   0.48939   0.10355
H          H       0.39012   0.55129   0.51273   0.10780
H          H       0.45449   0.85071   0.55014   0.11033
H          H       0.14987   0.60681   0.50330   0.10526
H          H       0.48048   0.64842   0.83310   0.12005
H          H       0.34764   0.82916   0.80682   0.11944
H          H       0.17215   0.52208   0.81980   0.11889
H          H       0.43528   0.68028   0.81635   0.10579
H          H       0.31824   0.75324   0.79235   0.10852
H          H       0.24918   0.56991   0.80978   0.10811
H          H       0.42087   0.52031   0.66092   0.05651
H          H       0.48088   0.90603   0.69631   0.05654
H          H       0.09392   0.57632   0.65123   0.05645
H          H       0.43111   0.46582   0.65059   0.10601
H          H       0.53432   0.97258   0.65925   0.10890
H          H       0.02737   0.56431   0.63435   0.10711
H          H       0.47336   0.43074   0.71170   0.12142
H          H       0.56823   0.04908   0.69610   0.12404
H          H       0.95242   0.52327   0.71008   0.12118
H          H       0.69995   0.41047   0.84451   0.10097
H          H       0.58809   0.29073   0.81327   0.10015
H          H       0.70921   0.30062   0.83655   0.10057
H          H       0.65791   0.42686   0.68392   0.10559
H          H       0.57380   0.23748   0.65021   0.10378
H          H       0.76394   0.34189   0.70167   0.10535
H          H       0.61462   0.46014   0.67409   0.10863
H          H       0.54071   0.16143   0.63194   0.10805
H          H       0.84078   0.38495   0.69697   0.10856
H          H       0.52030   0.35550   0.94048   0.12042
H          H       0.64200   0.16442   0.94560   0.12084
H          H       0.83836   0.47861   0.97091   0.12052
H          H       0.56492   0.32315   0.96075   0.10808
H          H       0.67424   0.24046   0.97201   0.10648
H          H       0.76132   0.43427   0.98513   0.10751
H          H       0.58785   0.48674   0.85571   0.06777
H          H       0.51146   0.10195   0.82251   0.06982
H          H       0.90150   0.41319   0.87615   0.06852
H          H       0.98141   0.38582   0.71212   0.07715
H          H       0.61879   0.60157   0.72660   0.07035
H          H       0.39372   0.01067   0.69952   0.07185
H          H       0.97490   0.36338   0.91889   0.09445
H          H       0.63799   0.60704   0.93963   0.09159
H          H       0.38953   0.02573   0.90042   0.09565
H          H       0.05271   0.40599   0.85421   0.09778
H          H       0.59556   0.64410   0.86499   0.10122
H          H       0.35524   0.94668   0.87545   0.10146
H          H       0.03612   0.42545   0.51334   0.08479
H          H       0.58463   0.60608   0.52201   0.07777
H          H       0.39637   0.96251   0.53520   0.08318
C          C       0.29084   0.63936   0.15395   0.07907
C          C       0.36198   0.65010   0.15740   0.08042
C          C       0.35162   0.70979   0.15729   0.08021
C          C       0.31823   0.62365   0.15462  -0.18899
C          C       0.37811   0.69310   0.15780  -0.18562
C          C       0.30808   0.68248   0.15528  -0.18319
C          C       0.24495   0.61149   0.15910   0.05538
C          C       0.39052   0.63307   0.16638   0.05170
C          C       0.36900   0.75498   0.16554   0.05587
C          C       0.37962   0.59632   0.08574  -0.12559
C          C       0.40594   0.78367   0.08750  -0.12424
C          C       0.21651   0.62204   0.07517  -0.12304
C          C       0.40575   0.57938   0.10015  -0.17586
C          C       0.42256   0.82621   0.09869  -0.17032
C          C       0.17330   0.59656   0.08490  -0.17654
C          C       0.44428   0.59900   0.19543   0.19636
C          C       0.40277   0.84182   0.18974   0.19415
C          C       0.15684   0.55915   0.17932   0.20010
C          C       0.45615   0.63675   0.27015  -0.15051
C          C       0.36528   0.81315   0.26415  -0.14472
C          C       0.18514   0.54777   0.25831  -0.15113
C          C       0.42962   0.65312   0.25732  -0.12820
C          C       0.34890   0.77073   0.25288  -0.13369
C          C       0.22824   0.57360   0.24950  -0.13093
C          C       0.45890   0.54507   0.21848   0.07993
C          C       0.45483   0.91224   0.18976   0.08097
C          C       0.08756   0.54419   0.19306   0.07849
C          C       0.48520   0.52629   0.24299  -0.01792
C          C       0.47206   0.95618   0.21774  -0.02191
C          C       0.04312   0.51774   0.22168  -0.01886
C          C       0.46541   0.48285   0.22662  -0.14208
C          C       0.51446   0.98334   0.18168  -0.14409
C          C       0.01740   0.53591   0.20531  -0.14424
C          C       0.48721   0.46179   0.25457  -0.11367
C          C       0.53441   0.02543   0.20848  -0.12177
C          C       0.97552   0.51399   0.24110  -0.11542
C          C       0.71023   0.35638   0.34031   0.07898
C          C       0.64050   0.34906   0.33659   0.08060
C          C       0.64720   0.28737   0.32798   0.07886
C          C       0.68443   0.37383   0.34221  -0.18348
C          C       0.62238   0.30588   0.33080  -0.18783
C          C       0.69103   0.31306   0.33297  -0.18564
C          C       0.75641   0.38305   0.34185   0.05181
C          C       0.61401   0.36826   0.33424   0.05299
C          C       0.62757   0.24187   0.31775   0.05221
C          C       0.62557   0.40587   0.24613  -0.12334
C          C       0.58963   0.21851   0.22313  -0.12692
C          C       0.78072   0.37104   0.26101  -0.12466
C          C       0.60090   0.42426   0.24212  -0.18119
C          C       0.57083   0.17561   0.21350  -0.17927
C          C       0.82406   0.39632   0.25769  -0.17669
C          C       0.56332   0.40541   0.32547   0.19950
C          C       0.58983   0.15449   0.29715   0.20068
C          C       0.84494   0.43528   0.33381   0.19519
C          C       0.55089   0.36713   0.40971  -0.15507
C          C       0.62843   0.17782   0.38811  -0.15969
C          C       0.82078   0.44775   0.41333  -0.15520
C          C       0.57607   0.34925   0.41500  -0.12627
C          C       0.64641   0.22050   0.40039  -0.12658
C          C       0.77757   0.42180   0.41944  -0.12498
C          C       0.55460   0.46237   0.32729   0.08451
C          C       0.53307   0.08732   0.30015   0.08737
C          C       0.91271   0.44753   0.33035   0.08419
C          C       0.53028   0.48328   0.30390  -0.01154
C          C       0.51282   0.04284   0.27428  -0.01489
C          C       0.95702   0.47235   0.29732  -0.01298
C          C       0.55049   0.52655   0.32348   0.08460
C          C       0.47039   0.01638   0.31039   0.08529
C          C       0.98205   0.45356   0.31321   0.08754
C          C       0.52867   0.54822   0.29010   0.10581
C          C       0.44991   0.97353   0.28203   0.10584
C          C       0.02447   0.47556   0.27439   0.10756
C          C       0.98496   0.39184   0.32861  -0.02927
C          C       0.61430   0.59035   0.34024  -0.02952
C          C       0.40467   0.00990   0.34651  -0.03004
C          C       0.03117   0.41850   0.37961  -0.03375
C          C       0.58912   0.60956   0.38734  -0.03097
C          C       0.38920   0.96521   0.40141  -0.03665
C          C       0.28925   0.64331   0.64337   0.08052
C          C       0.35960   0.65234   0.64715   0.08061
C          C       0.35102   0.71312   0.64876   0.07840
C          C       0.31585   0.62674   0.64495  -0.18514
C          C       0.37670   0.69548   0.64817  -0.18408
C          C       0.30727   0.68652   0.64379  -0.18801
C          C       0.24346   0.61549   0.64917   0.05665
C          C       0.38669   0.63373   0.65550   0.05336
C          C       0.36933   0.75839   0.66053   0.05478
C          C       0.37440   0.59672   0.57357  -0.12469
C          C       0.40834   0.78696   0.59609  -0.12128
C          C       0.21459   0.62548   0.56567  -0.12348
C          C       0.39952   0.57867   0.58459  -0.17516
C          C       0.42526   0.82953   0.60803  -0.17413
C          C       0.17148   0.59898   0.57359  -0.17550
C          C       0.43821   0.59727   0.67944   0.19675
C          C       0.40342   0.84527   0.68451   0.19690
C          C       0.15573   0.56129   0.66593   0.19902
C          C       0.45089   0.63469   0.75850  -0.14805
C          C       0.36404   0.81684   0.74582  -0.14682
C          C       0.18458   0.55093   0.74688  -0.14749
C          C       0.42558   0.65240   0.74768  -0.12814
C          C       0.34770   0.77440   0.73611  -0.13249
C          C       0.22750   0.57768   0.73991  -0.13295
C          C       0.45412   0.54384   0.68809   0.07814
C          C       0.45673   0.91458   0.70839   0.07764
C          C       0.08560   0.54376   0.67606   0.07729
C          C       0.48173   0.52657   0.71685  -0.01801
C          C       0.47371   0.95871   0.73090  -0.02253
C          C       0.04158   0.51628   0.70803  -0.02060
C          C       0.46389   0.48347   0.69596  -0.14217
C          C       0.51651   0.98587   0.70127  -0.14307
C          C       0.01468   0.53303   0.68728  -0.14171
C          C       0.48685   0.46375   0.73048  -0.11585
C          C       0.53549   0.02816   0.72136  -0.11853
C          C       0.97337   0.51077   0.72987  -0.11555
C          C       0.71020   0.35866   0.84190   0.07957
C          C       0.64104   0.35290   0.83032   0.07862
C          C       0.64634   0.29034   0.82481   0.08104
C          C       0.68505   0.37691   0.84017  -0.18545
C          C       0.62216   0.30965   0.82247  -0.18751
C          C       0.69024   0.31530   0.83551  -0.18518
C          C       0.75647   0.38437   0.84504   0.05194
C          C       0.61516   0.37280   0.82578   0.05355
C          C       0.62633   0.24484   0.81403   0.05186
C          C       0.62871   0.41189   0.74732  -0.12394
C          C       0.58817   0.22155   0.72060  -0.12315
C          C       0.78009   0.37084   0.76833  -0.12396
C          C       0.60438   0.43071   0.74134  -0.18004
C          C       0.56938   0.17867   0.71011  -0.18004
C          C       0.82354   0.39508   0.76548  -0.17899
C          C       0.56492   0.41053   0.81130   0.19961
C          C       0.58859   0.15752   0.79176   0.20106
C          C       0.84519   0.43450   0.83759   0.19829
C          C       0.55065   0.37092   0.88570  -0.15482
C          C       0.62737   0.18080   0.88148  -0.15900
C          C       0.82173   0.44852   0.91261  -0.15642
C          C       0.57568   0.35287   0.89529  -0.12685
C          C       0.64536   0.22342   0.89469  -0.12458
C          C       0.77841   0.42358   0.91877  -0.12512
C          C       0.55444   0.46649   0.82016   0.08305
C          C       0.53202   0.09021   0.79409   0.08575
C          C       0.91292   0.44570   0.83846   0.08444
C          C       0.52910   0.48624   0.79130  -0.01375
C          C       0.51251   0.04561   0.77385  -0.01339
C          C       0.95686   0.47041   0.79961  -0.01461
C          C       0.54730   0.52911   0.81654   0.08322
C          C       0.46983   0.01900   0.80572   0.08882
C          C       0.98312   0.45302   0.82066   0.08566
C          C       0.52448   0.54953   0.77541   0.10723
C          C       0.45048   0.97595   0.78573   0.10211
C          C       0.02476   0.47509   0.77203   0.10696
C          C       0.98799   0.39261   0.84597  -0.03323
C          C       0.60942   0.59422   0.85609  -0.02826
C          C       0.40297   0.01096   0.83319  -0.02778
C          C       0.03463   0.42031   0.88523  -0.03448
C          C       0.58113   0.61074   0.89349  -0.03487
C          C       0.38912   0.96746   0.89998  -0.03326
N          N       0.47258   0.58444   0.21793  -0.26858
N          N       0.41661   0.88366   0.21467  -0.27502
N          N       0.11427   0.53142   0.20026  -0.26946
N          N       0.53716   0.42245   0.32212  -0.27925
N          N       0.57298   0.11164   0.28641  -0.27856
N          N       0.88808   0.46286   0.32351  -0.28107
N          N       0.46645   0.58269   0.70060  -0.27131
N          N       0.41718   0.88720   0.70469  -0.26976
N          N       0.11340   0.53240   0.68554  -0.26880
N          N       0.53832   0.42705   0.80247  -0.27676
N          N       0.57195   0.11471   0.78216  -0.27794
N          N       0.88834   0.46113   0.82571  -0.27880
O          O       0.96305   0.41257   0.36829  -0.19660
O          O       0.59245   0.54661   0.37887  -0.19369
O          O       0.44960   0.03406   0.37462  -0.19598
O          O       0.04848   0.45693   0.28422  -0.16533
O          O       0.54854   0.59062   0.29955  -0.16431
O          O       0.40817   0.94781   0.30906  -0.16293
O          O       0.96644   0.41335   0.89059  -0.19902
O          O       0.58826   0.55005   0.88410  -0.19604
O          O       0.44781   0.03665   0.85856  -0.19688
O          O       0.04988   0.45770   0.78369  -0.16473
O          O       0.54286   0.59165   0.78962  -0.16429
O          O       0.40904   0.94963   0.81651  -0.16453

