data_crystal

_audit_creation_method 'AiiDA-DDEC plugin'

_cell_length_a        37.68843
_cell_length_b        37.78651
_cell_length_c         7.94790

_cell_angle_alpha     89.56557
_cell_angle_beta     89.57518
_cell_angle_gamma     120.31728

_symmetry_space_group_name_Hall 'P 1'
_symmetry_space_group_name_H-M  'P 1'

loop_
_symmetry_equiv_pos_as_xyz
 'x,y,z'

loop_
_atom_site_label
_atom_site_type_symbol
_atom_site_fract_x
_atom_site_fract_y
_atom_site_fract_z
_atom_site_charge
H          H       0.29756   0.58945   0.24810   0.10142
H          H       0.41078   0.70492   0.26102   0.10121
H          H       0.29532   0.70192   0.25316   0.10135
H          H       0.33666   0.57179   0.10557   0.10525
H          H       0.42968   0.76241   0.11410   0.10483
H          H       0.23966   0.66260   0.08834   0.10467
H          H       0.37420   0.53399   0.11531   0.13542
H          H       0.46653   0.83822   0.11835   0.13491
H          H       0.16361   0.62492   0.09701   0.13358
H          H       0.46837   0.63060   0.40817   0.11117
H          H       0.36755   0.83299   0.41147   0.11181
H          H       0.16461   0.53219   0.41126   0.11125
H          H       0.43004   0.66733   0.40518   0.10963
H          H       0.33150   0.75753   0.41131   0.10902
H          H       0.24023   0.57039   0.40650   0.10941
H          H       0.43222   0.45241   0.13639   0.13014
H          H       0.54412   0.97749   0.10572   0.13073
H          H       0.02285   0.56741   0.11837   0.13057
H          H       0.48391   0.43017   0.15418   0.10542
H          H       0.56502   0.05133   0.10825   0.10611
H          H       0.94847   0.51583   0.13994   0.10659
H          H       0.70176   0.40710   0.27658   0.10052
H          H       0.58906   0.29136   0.26577   0.10076
H          H       0.70497   0.29528   0.25021   0.10119
H          H       0.66451   0.42577   0.13064   0.10682
H          H       0.57090   0.23742   0.11175   0.10904
H          H       0.76304   0.33585   0.11449   0.10610
H          H       0.62761   0.46417   0.14423   0.13583
H          H       0.53189   0.16157   0.11370   0.13719
H          H       0.83861   0.37404   0.12981   0.13575
H          H       0.52945   0.36402   0.42254   0.10880
H          H       0.63064   0.16097   0.37959   0.10773
H          H       0.83307   0.46545   0.43077   0.10838
H          H       0.56724   0.32668   0.41586   0.10929
H          H       0.66838   0.23636   0.38557   0.11087
H          H       0.75761   0.42621   0.42217   0.10937
H          H       0.56765   0.58702   0.05166   0.06018
H          H       0.40833   0.97982   0.06102   0.06234
H          H       0.02062   0.43544   0.08364   0.05801
H          H       0.59125   0.61844   0.37493   0.08481
H          H       0.37818   0.96697   0.38170   0.08651
H          H       0.02875   0.41148   0.39190   0.08136
H          H       0.47451   0.57650   0.33342   0.26344
H          H       0.42205   0.89424   0.33443   0.26381
H          H       0.10441   0.52716   0.33982   0.26280
H          H       0.52550   0.42135   0.35167   0.26959
H          H       0.57474   0.10100   0.30098   0.26680
H          H       0.89559   0.47449   0.34210   0.27070
H          H       0.29970   0.59257   0.75581   0.10035
H          H       0.41124   0.70944   0.76994   0.10099
H          H       0.29433   0.70339   0.76256   0.10099
H          H       0.33836   0.57590   0.61774   0.10584
H          H       0.42837   0.76596   0.61858   0.10622
H          H       0.23883   0.66433   0.60781   0.10616
H          H       0.37580   0.53800   0.62945   0.13582
H          H       0.46501   0.84159   0.62566   0.13508
H          H       0.16280   0.62476   0.61404   0.13566
H          H       0.47095   0.63587   0.91422   0.11107
H          H       0.36607   0.83553   0.92202   0.11078
H          H       0.16628   0.52944   0.89965   0.11253
H          H       0.43274   0.67274   0.90890   0.10875
H          H       0.33042   0.76018   0.92057   0.10579
H          H       0.24179   0.56949   0.89881   0.10911
H          H       0.43139   0.45560   0.64901   0.13126
H          H       0.54193   0.98015   0.60408   0.13026
H          H       0.02364   0.56480   0.62002   0.12989
H          H       0.48279   0.43272   0.65408   0.10666
H          H       0.56352   0.05418   0.60906   0.10449
H          H       0.94907   0.51287   0.63821   0.10492
H          H       0.70428   0.41097   0.77119   0.10076
H          H       0.59070   0.29622   0.74735   0.10192
H          H       0.70544   0.29790   0.75323   0.10118
H          H       0.66626   0.42967   0.61405   0.10608
H          H       0.57374   0.24028   0.59256   0.10842
H          H       0.76281   0.33571   0.62485   0.10662
H          H       0.62898   0.46792   0.62630   0.13585
H          H       0.53498   0.16459   0.59959   0.13526
H          H       0.83840   0.37169   0.64261   0.13745
H          H       0.53318   0.36960   0.92101   0.10850
H          H       0.62940   0.16529   0.90355   0.10735
H          H       0.83634   0.46739   0.92504   0.10806
H          H       0.57123   0.33248   0.91418   0.11056
H          H       0.66710   0.24066   0.90209   0.10935
H          H       0.76087   0.43031   0.91551   0.10721
H          H       0.56393   0.58544   0.55537   0.05640
H          H       0.41491   0.97761   0.54972   0.05837
H          H       0.02306   0.43648   0.57687   0.06071
H          H       0.59330   0.62133   0.87222   0.08640
H          H       0.37850   0.97111   0.87066   0.07864
H          H       0.02978   0.40933   0.91127   0.08553
H          H       0.47638   0.58054   0.84366   0.26397
H          H       0.42091   0.89748   0.84487   0.26281
H          H       0.10523   0.52407   0.83671   0.26369
H          H       0.52969   0.42708   0.85723   0.26946
H          H       0.57526   0.10455   0.81150   0.26719
H          H       0.89792   0.47243   0.84922   0.26954
C          C       0.29126   0.64302   0.24964   0.08083
C          C       0.35696   0.64454   0.25381   0.08203
C          C       0.35569   0.70870   0.25765   0.08054
C          C       0.31384   0.62277   0.25023  -0.18896
C          C       0.37738   0.68752   0.25770  -0.18752
C          C       0.31262   0.68599   0.25319  -0.18643
C          C       0.24590   0.61972   0.24814   0.04534
C          C       0.38013   0.62256   0.25503   0.04422
C          C       0.37766   0.75394   0.26163   0.04618
C          C       0.36507   0.58456   0.17593  -0.11170
C          C       0.41621   0.77768   0.18253  -0.11278
C          C       0.22336   0.63449   0.16298  -0.11246
C          C       0.38610   0.56303   0.17872  -0.17382
C          C       0.43718   0.82037   0.18278  -0.17314
C          C       0.18053   0.61341   0.16543  -0.17264
C          C       0.42385   0.57972   0.26167   0.23335
C          C       0.41949   0.84068   0.26424   0.23407
C          C       0.15891   0.57619   0.25527   0.23273
C          C       0.43959   0.61786   0.34018  -0.19779
C          C       0.38101   0.81745   0.34461  -0.19765
C          C       0.18102   0.56062   0.33862  -0.19803
C          C       0.41802   0.63873   0.33723  -0.12093
C          C       0.36057   0.77487   0.34331  -0.12077
C          C       0.22373   0.58208   0.33508  -0.12177
C          C       0.43880   0.52315   0.20789   0.47247
C          C       0.47503   0.91280   0.19909   0.47393
C          C       0.08724   0.56158   0.20036   0.47417
C          C       0.47139   0.51213   0.23474  -0.11781
C          C       0.48511   0.95630   0.21847  -0.11542
C          C       0.04316   0.52966   0.23445  -0.11495
C          C       0.46269   0.47264   0.18594  -0.09802
C          C       0.52383   0.98746   0.15722  -0.09666
C          C       0.01237   0.53762   0.17727  -0.10157
C          C       0.49179   0.46053   0.19701  -0.14562
C          C       0.53521   0.02856   0.15986  -0.14637
C          C       0.97081   0.50854   0.19039  -0.14791
C          C       0.70874   0.35402   0.26390   0.08139
C          C       0.64265   0.35179   0.26981   0.08219
C          C       0.64448   0.28809   0.25605   0.07898
C          C       0.68577   0.37384   0.27035  -0.18657
C          C       0.62248   0.30891   0.26402  -0.18906
C          C       0.68757   0.31107   0.25570  -0.18610
C          C       0.75414   0.37776   0.26777   0.04356
C          C       0.61928   0.37352   0.27438   0.04476
C          C       0.62241   0.24288   0.25005   0.04571
C          C       0.63538   0.41245   0.19894  -0.11074
C          C       0.58373   0.22079   0.17464  -0.11064
C          C       0.77807   0.36380   0.18759  -0.11000
C          C       0.61465   0.43418   0.20342  -0.17268
C          C       0.56168   0.17812   0.17270  -0.17012
C          C       0.82084   0.38539   0.19318  -0.17161
C          C       0.57616   0.41686   0.28441   0.23012
C          C       0.57863   0.15626   0.24678   0.22883
C          C       0.84110   0.42255   0.27990   0.22710
C          C       0.55913   0.37762   0.35793  -0.20324
C          C       0.61759   0.17779   0.31986  -0.20250
C          C       0.81775   0.43723   0.35928  -0.20111
C          C       0.58046   0.35644   0.35317  -0.11865
C          C       0.63901   0.22039   0.32197  -0.11920
C          C       0.77505   0.41512   0.35340  -0.11859
C          C       0.56560   0.47696   0.24471   0.47979
C          C       0.51835   0.08530   0.20808   0.47916
C          C       0.91282   0.43485   0.25050   0.48016
C          C       0.53211   0.48711   0.25494  -0.12513
C          C       0.50839   0.04175   0.21995  -0.12141
C          C       0.95663   0.46881   0.25888  -0.12516
C          C       0.54030   0.52573   0.30444   0.13395
C          C       0.47036   0.01099   0.27968   0.12973
C          C       0.98701   0.46143   0.31755   0.13045
C          C       0.51071   0.53750   0.29603   0.10189
C          C       0.45953   0.96980   0.28158   0.10522
C          C       0.02866   0.49111   0.30758   0.10580
C          C       0.56745   0.58783   0.41778   0.17875
C          C       0.40986   0.97591   0.41323   0.17808
C          C       0.02187   0.43461   0.43910   0.18004
C          C       0.29176   0.64506   0.75775   0.08031
C          C       0.35840   0.64849   0.76224   0.08068
C          C       0.35526   0.71168   0.76599   0.08180
C          C       0.31531   0.62586   0.75815  -0.18608
C          C       0.37787   0.69141   0.76611  -0.18711
C          C       0.31220   0.68806   0.76205  -0.18904
C          C       0.24642   0.62045   0.75461   0.04602
C          C       0.38219   0.62715   0.76362   0.04791
C          C       0.37656   0.75693   0.76920   0.04674
C          C       0.36700   0.58890   0.68666  -0.11202
C          C       0.41490   0.78095   0.68897  -0.11387
C          C       0.22311   0.63519   0.67574  -0.11244
C          C       0.38799   0.56738   0.69033  -0.17547
C          C       0.43572   0.82362   0.69036  -0.17157
C          C       0.18031   0.61308   0.67669  -0.17184
C          C       0.42592   0.58430   0.77208   0.23574
C          C       0.41804   0.84376   0.77322   0.23111
C          C       0.15942   0.57467   0.75806   0.23306
C          C       0.44199   0.62286   0.84744  -0.19941
C          C       0.37962   0.82025   0.85390  -0.19702
C          C       0.18223   0.55895   0.83413  -0.19978
C          C       0.42041   0.64376   0.84354  -0.12226
C          C       0.35938   0.77765   0.85196  -0.11983
C          C       0.22492   0.58154   0.83257  -0.11984
C          C       0.43946   0.52678   0.72173   0.47419
C          C       0.47351   0.91582   0.70647   0.47265
C          C       0.08759   0.55943   0.70649   0.47446
C          C       0.47192   0.51539   0.74332  -0.11861
C          C       0.48416   0.95949   0.72801  -0.12051
C          C       0.04366   0.52711   0.73846  -0.11811
C          C       0.46243   0.47573   0.69336  -0.09665
C          C       0.52241   0.99040   0.66127  -0.10265
C          C       0.01299   0.53496   0.67883  -0.09892
C          C       0.49137   0.46331   0.69641  -0.14287
C          C       0.53417   0.03160   0.66500  -0.14640
C          C       0.97147   0.50578   0.68970  -0.14432
C          C       0.71033   0.35723   0.76213   0.08041
C          C       0.64484   0.35613   0.75905   0.08258
C          C       0.64555   0.29180   0.75006   0.08284
C          C       0.68795   0.37770   0.76429  -0.18937
C          C       0.62410   0.31322   0.75144  -0.18865
C          C       0.68859   0.31427   0.75471  -0.18701
C          C       0.75567   0.37995   0.76888   0.04414
C          C       0.62180   0.37820   0.76313   0.04542
C          C       0.62331   0.24654   0.74755   0.04417
C          C       0.63742   0.41669   0.68430  -0.11214
C          C       0.58573   0.22404   0.66429  -0.11430
C          C       0.77862   0.36417   0.69429  -0.10916
C          C       0.61656   0.43835   0.68874  -0.17106
C          C       0.56381   0.18134   0.66545  -0.17133
C          C       0.82131   0.38442   0.70107  -0.17377
C          C       0.57858   0.42136   0.77385   0.22634
C          C       0.57952   0.15980   0.75179   0.22890
C          C       0.84252   0.42216   0.78307   0.22744
C          C       0.56227   0.38271   0.85210  -0.20133
C          C       0.61736   0.18173   0.83335  -0.20171
C          C       0.82021   0.43867   0.85717  -0.20121
C          C       0.58364   0.36161   0.84702  -0.11958
C          C       0.63878   0.22436   0.83149  -0.11960
C          C       0.77751   0.41777   0.85063  -0.11687
C          C       0.56571   0.47970   0.72293   0.48004
C          C       0.51850   0.08887   0.72239   0.48249
C          C       0.91343   0.43247   0.74813   0.48167
C          C       0.53245   0.48996   0.74554  -0.12135
C          C       0.50824   0.04519   0.73209  -0.12408
C          C       0.95734   0.46600   0.75689  -0.12206
C          C       0.54140   0.52864   0.79713   0.12798
C          C       0.47054   0.01468   0.79602   0.13058
C          C       0.98759   0.45854   0.81612   0.12919
C          C       0.51186   0.54055   0.79901   0.10281
C          C       0.45945   0.97340   0.79754   0.10472
C          C       0.02919   0.48854   0.81139   0.10474
C          C       0.56997   0.59040   0.91396   0.17790
C          C       0.40859   0.97954   0.92298   0.18117
C          C       0.02165   0.43235   0.94671   0.17880
N          N       0.44762   0.56061   0.27031  -0.36553
N          N       0.43795   0.88361   0.26858  -0.36353
N          N       0.11575   0.55295   0.26698  -0.36526
N          N       0.55324   0.43695   0.29199  -0.37934
N          N       0.55863   0.11315   0.24917  -0.37911
N          N       0.88433   0.44664   0.28784  -0.38269
N          N       0.44931   0.56481   0.78160  -0.36724
N          N       0.43666   0.88675   0.77857  -0.36458
N          N       0.11632   0.55052   0.76828  -0.36595
N          N       0.55550   0.44130   0.78407  -0.37482
N          N       0.55930   0.11662   0.75748  -0.38125
N          N       0.88573   0.44485   0.79192  -0.38037
O          O       0.52836   0.57830   0.34360  -0.23648
O          O       0.41945   0.94616   0.34263  -0.23600
O          O       0.05176   0.47453   0.36761  -0.23416
O          O       0.57712   0.55799   0.35731  -0.17823
O          O       0.43760   0.01472   0.33508  -0.18279
O          O       0.98205   0.42527   0.38245  -0.17759
O          O       0.40712   0.49992   0.13131  -0.45582
O          O       0.49857   0.90499   0.12020  -0.45532
O          O       0.09601   0.59224   0.11337  -0.45723
O          O       0.60012   0.50202   0.19088  -0.43296
O          O       0.49292   0.09459   0.16257  -0.43155
O          O       0.90381   0.40011   0.20729  -0.43277
O          O       0.53006   0.58117   0.84995  -0.23708
O          O       0.42017   0.95006   0.86624  -0.23537
O          O       0.05209   0.47193   0.87437  -0.23625
O          O       0.57908   0.56112   0.84217  -0.18349
O          O       0.43893   0.01916   0.85863  -0.17476
O          O       0.98277   0.42195   0.87559  -0.18033
O          O       0.40713   0.50346   0.64930  -0.45385
O          O       0.49639   0.90771   0.62408  -0.45610
O          O       0.09615   0.59062   0.62377  -0.45624
O          O       0.59809   0.50349   0.64914  -0.43329
O          O       0.49293   0.09839   0.68198  -0.43353
O          O       0.90378   0.39796   0.69935  -0.43158

