data_crystal

_audit_creation_method 'AiiDA-DDEC plugin'

_cell_length_a        37.19674
_cell_length_b        37.16820
_cell_length_c         8.17291

_cell_angle_alpha     91.40834
_cell_angle_beta     90.04114
_cell_angle_gamma     119.95935

_symmetry_space_group_name_Hall 'P 1'
_symmetry_space_group_name_H-M  'P 1'

loop_
_symmetry_equiv_pos_as_xyz
 'x,y,z'

loop_
_atom_site_label
_atom_site_type_symbol
_atom_site_fract_x
_atom_site_fract_y
_atom_site_fract_z
_atom_site_charge
H          H       0.30563   0.59165   0.37677   0.10233
H          H       0.41319   0.71336   0.36756   0.10191
H          H       0.29113   0.69918   0.36342   0.10158
H          H       0.34895   0.58108   0.20583   0.10856
H          H       0.42658   0.76751   0.22505   0.10472
H          H       0.23567   0.65491   0.21717   0.10540
H          H       0.39373   0.55005   0.19186   0.10662
H          H       0.45665   0.84270   0.20932   0.10841
H          H       0.16018   0.60829   0.19856   0.11177
H          H       0.48163   0.65225   0.99539   0.11962
H          H       0.35489   0.83678   0.00846   0.11547
H          H       0.16696   0.52046   0.99426   0.11695
H          H       0.43395   0.68094   0.01796   0.10583
H          H       0.32496   0.76051   0.02833   0.10501
H          H       0.24291   0.56816   0.01964   0.10655
H          H       0.42453   0.52014   0.29287   0.05805
H          H       0.46937   0.90058   0.17575   0.06275
H          H       0.09931   0.57563   0.32748   0.05793
H          H       0.43226   0.46523   0.29298   0.10298
H          H       0.52716   0.96404   0.18102   0.10447
H          H       0.03578   0.56628   0.32387   0.10380
H          H       0.47327   0.42872   0.28578   0.12123
H          H       0.56407   0.04164   0.20094   0.12244
H          H       0.95847   0.52345   0.30690   0.12007
H          H       0.70293   0.40974   0.27066   0.10303
H          H       0.59209   0.29014   0.27013   0.10163
H          H       0.71155   0.29856   0.26460   0.10200
H          H       0.65871   0.42272   0.12019   0.10583
H          H       0.57660   0.23399   0.11398   0.10713
H          H       0.76677   0.34086   0.10288   0.10565
H          H       0.61463   0.45482   0.12010   0.11008
H          H       0.54123   0.15739   0.11110   0.11185
H          H       0.84323   0.38274   0.10282   0.11035
H          H       0.52518   0.35685   0.41460   0.12020
H          H       0.64037   0.16325   0.40225   0.12100
H          H       0.83887   0.47449   0.41851   0.12042
H          H       0.57015   0.32517   0.42016   0.10826
H          H       0.67493   0.24025   0.41257   0.10717
H          H       0.76203   0.43191   0.42383   0.10838
H          H       0.59079   0.48621   0.28737   0.06675
H          H       0.51047   0.10307   0.29221   0.06811
H          H       0.90049   0.40645   0.26358   0.06895
H          H       0.51519   0.59474   0.07366   0.10465
H          H       0.39415   0.92142   0.04907   0.10132
H          H       0.05819   0.43160   0.03008   0.10100
H          H       0.56769   0.63559   0.08759   0.10991
H          H       0.35102   0.92711   0.11144   0.10901
H          H       0.10236   0.45683   0.16846   0.10765
H          H       0.53010   0.63298   0.23537   0.10368
H          H       0.36479   0.89416   0.22270   0.09829
H          H       0.08395   0.48639   0.06611   0.09940
H          H       0.61505   0.60745   0.37395   0.10121
H          H       0.38437   0.02542   0.35036   0.10580
H          H       0.95149   0.34798   0.29970   0.11092
H          H       0.65197   0.59043   0.33730   0.11207
H          H       0.42532   0.05905   0.49261   0.10855
H          H       0.95173   0.38120   0.46398   0.10475
H          H       0.61349   0.56661   0.49216   0.10604
H          H       0.40895   0.00508   0.47648   0.11261
H          H      -0.00016   0.39006   0.37800   0.10894
H          H       0.30119   0.59167   0.87643   0.10226
H          H       0.40890   0.71342   0.86491   0.10261
H          H       0.28719   0.69968   0.87054   0.10305
H          H       0.34398   0.57880   0.71701   0.10518
H          H       0.41684   0.76595   0.69454   0.10492
H          H       0.23189   0.65419   0.70916   0.10814
H          H       0.39078   0.54991   0.69896   0.10874
H          H       0.44633   0.84108   0.67498   0.10968
H          H       0.15670   0.60729   0.68664   0.10863
H          H       0.48181   0.64637   0.51911   0.11740
H          H       0.35320   0.83530   0.47232   0.11970
H          H       0.17126   0.51959   0.49076   0.12092
H          H       0.43639   0.67779   0.53350   0.10592
H          H       0.32340   0.75918   0.49401   0.10755
H          H       0.24726   0.56727   0.51527   0.10548
H          H       0.42504   0.52331   0.82302   0.05584
H          H       0.47510   0.90352   0.74570   0.05905
H          H       0.09545   0.57274   0.76528   0.05808
H          H       0.43413   0.46917   0.80755   0.10353
H          H       0.52983   0.96645   0.73295   0.10429
H          H       0.03358   0.56459   0.77085   0.10314
H          H       0.47715   0.43469   0.79191   0.12178
H          H       0.56501   0.04401   0.73413   0.12037
H          H       0.95616   0.52319   0.76921   0.11952
H          H       0.70042   0.41106   0.77454   0.10184
H          H       0.58907   0.29169   0.77081   0.10224
H          H       0.70833   0.29962   0.76886   0.10230
H          H       0.65885   0.42507   0.62151   0.10616
H          H       0.57440   0.23455   0.61241   0.10520
H          H       0.76333   0.34100   0.61035   0.10559
H          H       0.61743   0.46015   0.62292   0.10999
H          H       0.54035   0.15793   0.60861   0.10931
H          H       0.83973   0.38296   0.60693   0.11106
H          H       0.52458   0.36283   0.91005   0.12116
H          H       0.63914   0.16564   0.90748   0.12112
H          H       0.83614   0.47568   0.91969   0.12047
H          H       0.56707   0.32836   0.91574   0.10688
H          H       0.67247   0.24248   0.91820   0.10670
H          H       0.75915   0.43295   0.92745   0.10807
H          H       0.59387   0.49308   0.79111   0.06804
H          H       0.50945   0.10445   0.79141   0.06852
H          H       0.89574   0.40621   0.77444   0.06721
H          H       0.56883   0.61879   0.55324   0.09497
H          H       0.40002   0.92390   0.55161   0.10086
H          H       0.07664   0.47378   0.53881   0.10582
H          H       0.55319   0.64843   0.68223   0.11118
H          H       0.35654   0.93080   0.59066   0.10630
H          H       0.07205   0.42545   0.59355   0.10829
H          H       0.51521   0.59995   0.59136   0.09804
H          H       0.36461   0.89470   0.70778   0.10132
H          H       0.10453   0.47215   0.71439   0.09972
H          H       0.62171   0.62061   0.84057   0.10209
H          H       0.40400   0.05855   0.88616   0.11002
H          H       0.99209   0.37402   0.79547   0.10048
H          H       0.65262   0.59647   0.87497   0.10851
H          H       0.42133   0.03256   0.01919   0.10925
H          H       0.93772   0.34587   0.84098   0.10927
H          H       0.60987   0.58533   0.00547   0.11253
H          H       0.38320   0.00347   0.86166   0.10024
H          H       0.97246   0.38908   0.96970   0.11190
C          C       0.29289   0.64223   0.37200   0.08009
C          C       0.36238   0.65044   0.37348   0.07964
C          C       0.35427   0.71176   0.36624   0.07822
C          C       0.31908   0.62519   0.37473  -0.18524
C          C       0.37961   0.69369   0.36983  -0.18816
C          C       0.31105   0.68556   0.36764  -0.18526
C          C       0.24735   0.61501   0.36890   0.05115
C          C       0.38906   0.63149   0.37188   0.05426
C          C       0.37231   0.75722   0.35862   0.05659
C          C       0.37733   0.59470   0.27958  -0.12684
C          C       0.41056   0.78217   0.28229  -0.11988
C          C       0.22163   0.62619   0.28410  -0.12310
C          C       0.40261   0.57706   0.27213  -0.17437
C          C       0.42743   0.82488   0.27213  -0.17217
C          C       0.17885   0.59983   0.27347  -0.17999
C          C       0.44071   0.59558   0.35919   0.18869
C          C       0.40637   0.84461   0.33720   0.19331
C          C       0.16012   0.56082   0.34762   0.19509
C          C       0.45258   0.63247   0.45100  -0.15398
C          C       0.36870   0.81989   0.41699  -0.15535
C          C       0.18580   0.54949   0.43217  -0.15770
C          C       0.42718   0.64998   0.45779  -0.12621
C          C       0.35198   0.77718   0.42729  -0.12610
C          C       0.22838   0.57623   0.44424  -0.12655
C          C       0.45761   0.54351   0.30974   0.08119
C          C       0.45076   0.91152   0.24223   0.09161
C          C       0.09048   0.54258   0.31787   0.08385
C          C       0.48527   0.52686   0.28759  -0.04098
C          C       0.46689   0.95601   0.23294  -0.03866
C          C       0.04616   0.51447   0.29444  -0.03898
C          C       0.46598   0.48286   0.28668  -0.13225
C          C       0.51013   0.98030   0.20603  -0.13395
C          C       0.02066   0.53274   0.30473  -0.13198
C          C       0.48831   0.46239   0.28284  -0.11604
C          C       0.53077   0.02307   0.21764  -0.11664
C          C       0.97792   0.50938   0.29560  -0.10813
C          C       0.71259   0.35713   0.26772   0.07796
C          C       0.64444   0.35226   0.27150   0.08094
C          C       0.64934   0.28891   0.26712   0.08087
C          C       0.68795   0.37602   0.27036  -0.18701
C          C       0.62575   0.30883   0.26983  -0.18560
C          C       0.69279   0.31353   0.26650  -0.18678
C          C       0.75843   0.38257   0.26630   0.05545
C          C       0.61834   0.37193   0.27304   0.05358
C          C       0.62836   0.24304   0.26478   0.05045
C          C       0.63041   0.40904   0.19113  -0.12473
C          C       0.59003   0.21876   0.18275  -0.12296
C          C       0.78240   0.36927   0.17797  -0.12459
C          C       0.60558   0.42727   0.19104  -0.17437
C          C       0.56997   0.17557   0.18098  -0.18029
C          C       0.82555   0.39283   0.17776  -0.17508
C          C       0.56737   0.40881   0.27290   0.19675
C          C       0.58798   0.15496   0.25981   0.19973
C          C       0.84645   0.43099   0.26641   0.19726
C          C       0.55457   0.37104   0.35083  -0.15423
C          C       0.62672   0.17908   0.33919  -0.15705
C          C       0.82258   0.44513   0.34977  -0.15296
C          C       0.57986   0.35337   0.35267  -0.12923
C          C       0.64606   0.22221   0.34353  -0.12742
C          C       0.77954   0.42115   0.35147  -0.12640
C          C       0.55711   0.46533   0.28001   0.08429
C          C       0.53005   0.08922   0.26860   0.08543
C          C       0.91308   0.44016   0.26895   0.08198
C          C       0.53203   0.48541   0.27824  -0.00777
C          C       0.50879   0.04404   0.25370  -0.01397
C          C       0.95816   0.46587   0.27498  -0.00828
C          C       0.55193   0.52907   0.27140   0.09491
C          C       0.46529   0.02065   0.26989   0.09588
C          C       0.98289   0.44699   0.26162   0.09980
C          C       0.52914   0.55022   0.27286   0.12502
C          C       0.44396   0.97675   0.25595   0.11568
C          C       0.02655   0.47072   0.26921   0.12463
C          C       0.54025   0.61529   0.15828  -0.18844
C          C       0.37651   0.92279   0.15417  -0.18936
C          C       0.07462   0.45663   0.12225  -0.18765
C          C       0.61998   0.58073   0.37144  -0.19406
C          C       0.41372   0.03202   0.40830  -0.18515
C          C       0.96714   0.37970   0.35170  -0.19499
C          C       0.28876   0.64244   0.87288   0.07933
C          C       0.35816   0.65036   0.87230   0.07875
C          C       0.35022   0.71186   0.86922   0.07990
C          C       0.31485   0.62524   0.87472  -0.18525
C          C       0.37536   0.69362   0.86903  -0.18512
C          C       0.30695   0.68583   0.87133  -0.18769
C          C       0.24324   0.61501   0.86689   0.05248
C          C       0.38529   0.63193   0.86932   0.05285
C          C       0.36889   0.75745   0.86436   0.05567
C          C       0.37343   0.59423   0.78389  -0.12393
C          C       0.40401   0.78143   0.76883  -0.12445
C          C       0.21769   0.62562   0.77722  -0.12506
C          C       0.39979   0.57777   0.77413  -0.17763
C          C       0.42085   0.82414   0.75813  -0.17432
C          C       0.17500   0.59901   0.76460  -0.17714
C          C       0.43935   0.59879   0.85003   0.19684
C          C       0.40341   0.84488   0.84493   0.18889
C          C       0.15611   0.56052   0.84288   0.19215
C          C       0.45121   0.63643   0.93595  -0.15664
C          C       0.36828   0.82091   0.94051  -0.15495
C          C       0.18162   0.54990   0.93235  -0.15533
C          C       0.42459   0.65244   0.94672  -0.12686
C          C       0.35144   0.77816   0.95035  -0.12960
C          C       0.22421   0.57662   0.94487  -0.12574
C          C       0.45800   0.54761   0.81941   0.08312
C          C       0.45248   0.91325   0.77877   0.08549
C          C       0.08667   0.54022   0.78607   0.08350
C          C       0.48618   0.53141   0.80079  -0.03386
C          C       0.46829   0.95747   0.76207  -0.03632
C          C       0.04243   0.51157   0.76711  -0.04046
C          C       0.46777   0.48761   0.79945  -0.13654
C          C       0.51185   0.98218   0.74413  -0.13404
C          C       0.01764   0.53079   0.76707  -0.13622
C          C       0.49122   0.46830   0.79184  -0.10726
C          C       0.53158   0.02494   0.74594  -0.11181
C          C       0.97495   0.50828   0.76701  -0.11423
C          C       0.70969   0.35826   0.77206   0.07870
C          C       0.64177   0.35380   0.77213   0.07797
C          C       0.64626   0.29026   0.76984   0.08103
C          C       0.68529   0.37732   0.77336  -0.18689
C          C       0.62276   0.31031   0.77096  -0.18692
C          C       0.68971   0.31472   0.77042  -0.18467
C          C       0.75545   0.38342   0.77132   0.05390
C          C       0.61660   0.37443   0.77128   0.05432
C          C       0.62582   0.24444   0.76716   0.05167
C          C       0.63029   0.41209   0.69085  -0.12342
C          C       0.58800   0.21966   0.68235  -0.12389
C          C       0.77912   0.36968   0.68384  -0.12366
C          C       0.60698   0.43194   0.69123  -0.17613
C          C       0.56872   0.17650   0.68017  -0.17794
C          C       0.82221   0.39323   0.68200  -0.17627
C          C       0.56860   0.41445   0.77172   0.19736
C          C       0.58694   0.15649   0.76189   0.19904
C          C       0.84326   0.43173   0.76816   0.19779
C          C       0.55405   0.37606   0.84712  -0.15313
C          C       0.62537   0.18112   0.84273  -0.15498
C          C       0.81969   0.44615   0.85222  -0.15477
C          C       0.57793   0.35686   0.84901  -0.12519
C          C       0.64396   0.22417   0.84724  -0.12644
C          C       0.77667   0.42214   0.85543  -0.12955
C          C       0.56015   0.47236   0.78434   0.08229
C          C       0.52931   0.09068   0.77362   0.08343
C          C       0.90926   0.43996   0.76958   0.08469
C          C       0.53481   0.49217   0.78675  -0.01170
C          C       0.50861   0.04544   0.76683  -0.01313
C          C       0.95439   0.46453   0.76585  -0.01261
C          C       0.55398   0.53602   0.78656   0.10085
C          C       0.46490   0.02162   0.77761   0.10070
C          C       0.97808   0.44441   0.75971   0.09755
C          C       0.53004   0.55577   0.79029   0.12199
C          C       0.44447   0.97771   0.76924   0.11637
C          C       0.02202   0.46744   0.75645   0.12277
C          C       0.54653   0.61717   0.64474  -0.19015
C          C       0.37956   0.92454   0.64678  -0.19197
C          C       0.07592   0.45500   0.64122  -0.19170
C          C       0.62140   0.59254   0.88017  -0.18994
C          C       0.41082   0.03318   0.89431  -0.18893
C          C       0.96592   0.37649   0.84346  -0.19163
N          N       0.46928   0.58155   0.35295  -0.27670
N          N       0.41908   0.88704   0.32853  -0.29667
N          N       0.11796   0.53118   0.33343  -0.27660
N          N       0.54075   0.42534   0.27623  -0.28007
N          N       0.56993   0.11169   0.25643  -0.27845
N          N       0.88961   0.45666   0.27410  -0.27823
N          N       0.46919   0.58651   0.83705  -0.27457
N          N       0.41643   0.88730   0.83600  -0.28715
N          N       0.11390   0.53047   0.83271  -0.28023
N          N       0.54328   0.43234   0.77799  -0.27846
N          N       0.56922   0.11328   0.76247  -0.27668
N          N       0.88646   0.45724   0.77074  -0.28099
O          O       0.55281   0.59227   0.26194  -0.15706
O          O       0.40171   0.95820   0.26163  -0.15783
O          O       0.04746   0.44913   0.26044  -0.17469
O          O       0.59418   0.55038   0.24622  -0.18095
O          O       0.44398   0.04200   0.27998  -0.17491
O          O       0.96329   0.40486   0.22765  -0.18253
O          O       0.55095   0.59837   0.79112  -0.17741
O          O       0.40199   0.95771   0.76782  -0.15877
O          O       0.04034   0.44358   0.74453  -0.15471
O          O       0.59636   0.55771   0.76887  -0.17736
O          O       0.44381   0.04325   0.77825  -0.17936
O          O       0.95635   0.40183   0.73947  -0.17785

