data_crystal

_audit_creation_method 'AiiDA-DDEC plugin'

_cell_length_a        37.94440
_cell_length_b        37.81284
_cell_length_c         7.94919

_cell_angle_alpha     70.40801
_cell_angle_beta     108.63487
_cell_angle_gamma     121.91706

_symmetry_space_group_name_Hall 'P 1'
_symmetry_space_group_name_H-M  'P 1'

loop_
_symmetry_equiv_pos_as_xyz
 'x,y,z'

loop_
_atom_site_label
_atom_site_type_symbol
_atom_site_fract_x
_atom_site_fract_y
_atom_site_fract_z
_atom_site_charge
H          H       0.29311   0.58216   0.14221   0.10218
H          H       0.41544   0.69221   0.18097   0.10187
H          H       0.30418   0.70113   0.13593   0.10072
H          H       0.32400   0.56786   0.99528   0.10473
H          H       0.44587   0.75876   0.11367   0.10748
H          H       0.24025   0.67055   0.91997   0.10394
H          H       0.35295   0.51923   0.04446   0.11969
H          H       0.48903   0.83171   0.17014   0.11848
H          H       0.16706   0.64537   0.95108   0.11831
H          H       0.46323   0.59520   0.38965   0.12220
H          H       0.38222   0.82265   0.29874   0.12391
H          H       0.17229   0.54194   0.38333   0.12399
H          H       0.43331   0.64279   0.34640   0.10794
H          H       0.34029   0.74871   0.25868   0.10620
H          H       0.24532   0.56679   0.34898   0.10415
H          H       0.41071   0.44656   0.06439   0.11818
H          H       0.55355   0.96442   0.17269   0.12030
H          H       0.03412   0.58727   0.94954   0.11816
H          H       0.44561   0.40683   0.07737   0.12362
H          H       0.59480   0.03787   0.21227   0.12018
H          H       0.96049   0.55648   0.97348   0.11809
H          H       0.69621   0.40520   0.22250   0.10222
H          H       0.59713   0.27624   0.24865   0.10145
H          H       0.72416   0.30456   0.28387   0.10484
H          H       0.64676   0.42172   0.11113   0.10497
H          H       0.58955   0.22841   0.08262   0.10416
H          H       0.77865   0.35358   0.16906   0.10548
H          H       0.59845   0.44288   0.14861   0.12201
H          H       0.56095   0.14978   0.15100   0.12387
H          H       0.85441   0.40626   0.18986   0.12472
H          H       0.52444   0.31485   0.41781   0.11998
H          H       0.66425   0.16002   0.59459   0.11838
H          H       0.83066   0.49131   0.32777   0.12324
H          H       0.57237   0.29336   0.38008   0.09789
H          H       0.69336   0.23888   0.52570   0.10957
H          H       0.75561   0.43885   0.31356   0.11001
H          H       0.58076   0.55001   0.08817   0.05136
H          H       0.43797   0.00620  -0.00265   0.04137
H          H       0.00201   0.43939   0.16015   0.03921
H          H       0.60106   0.56829   0.39363   0.06677
H          H       0.41626   0.99703   0.23384   0.04736
H          H       0.00443   0.41682   0.46272   0.04413
H          H       0.28709   0.59811   0.63654   0.09852
H          H       0.40335   0.71395   0.68601   0.10391
H          H       0.28531   0.71052   0.63636   0.09862
H          H       0.32355   0.58792   0.50528   0.10066
H          H       0.42765   0.77809   0.60805   0.10614
H          H       0.21992   0.67547   0.43469   0.10815
H          H       0.35987   0.54541   0.56417   0.11857
H          H       0.46895   0.84978   0.67665   0.12090
H          H       0.14579   0.63951   0.47868   0.11941
H          H       0.46322   0.62766   0.90954   0.12386
H          H       0.36233   0.83143   0.84566   0.12004
H          H       0.16416   0.53744   0.87235   0.12276
H          H       0.42715   0.67018   0.84905   0.10890
H          H       0.32114   0.75942   0.77944   0.10794
H          H       0.23835   0.57376   0.82910   0.10566
H          H       0.40636   0.47244   0.61106   0.11664
H          H       0.54272   0.96778   0.72392   0.11971
H          H       0.02249   0.58077   0.48832   0.12183
H          H       0.43440   0.42763   0.60863   0.12401
H          H       0.58946   0.04251   0.73896   0.11924
H          H       0.94949   0.55366   0.50966   0.11981
H          H       0.68235   0.41848   0.73763   0.10050
H          H       0.58270   0.28967   0.75393   0.10096
H          H       0.70752   0.32015   0.73758   0.10146
H          H       0.63180   0.43409   0.61061   0.10576
H          H       0.56952   0.23745   0.59493   0.10269
H          H       0.76016   0.36479   0.65248   0.10616
H          H       0.58482   0.45677   0.64795   0.11375
H          H       0.54891   0.16054   0.65669   0.12411
H          H       0.83688   0.41189   0.68826   0.12285
H          H       0.51139   0.33024   0.93195   0.11840
H          H       0.66735   0.18338   0.01531   0.12209
H          H       0.82243   0.49956   0.85593   0.11848
H          H       0.55855   0.30739   0.89829   0.10690
H          H       0.68900   0.26033   0.94738   0.10953
H          H       0.74556   0.45234   0.82463   0.10881
H          H       0.57779   0.53013   0.58995   0.05475
H          H       0.42485   0.97922   0.47942   0.06988
H          H       0.02020   0.43817   0.66567   0.07409
H          H       0.60432   0.58573   0.88849   0.07115
H          H       0.41204   0.02321   0.77240   0.07809
H          H       0.98411   0.39861   0.03347   0.07454
C          C       0.29382   0.63999   0.13472   0.07992
C          C       0.35656   0.63484   0.15518   0.08092
C          C       0.36341   0.70282   0.15938   0.08355
C          C       0.31262   0.61600   0.14199  -0.19886
C          C       0.38139   0.67800   0.16533  -0.18917
C          C       0.31937   0.68324   0.13963  -0.18553
C          C       0.24851   0.62121   0.13586   0.04772
C          C       0.37590   0.60858   0.16975   0.04105
C          C       0.38929   0.74745   0.18139   0.04524
C          C       0.35403   0.57340   0.08560  -0.11450
C          C       0.43169   0.77207   0.15701  -0.11692
C          C       0.22561   0.64270   0.02315  -0.11498
C          C       0.37032   0.54625   0.11044  -0.19115
C          C       0.45622   0.81338   0.18707  -0.18762
C          C       0.18461   0.62869   0.03911  -0.18624
C          C       0.40998   0.55417   0.22073   0.21563
C          C       0.43847   0.83215   0.23676   0.20537
C          C       0.16546   0.59245   0.17071   0.21097
C          C       0.43298   0.58981   0.30192  -0.19553
C          C       0.39590   0.80859   0.25733  -0.18286
C          C       0.18720   0.56958   0.28014  -0.18598
C          C       0.41593   0.61639   0.27637  -0.11355
C          C       0.37233   0.76693   0.23180  -0.11724
C          C       0.22811   0.58384   0.26029  -0.12646
C          C       0.44427   0.51317   0.22664   0.19728
C          C       0.47608   0.90857   0.25115   0.18721
C          C       0.08994   0.56066   0.17774   0.18137
C          C       0.46408   0.49304   0.21902  -0.08772
C          C       0.49676   0.95043   0.25357  -0.09071
C          C       0.04837   0.54205   0.17859  -0.08674
C          C       0.44317   0.45636   0.13418  -0.13824
C          C       0.53976   0.97790   0.21714  -0.14292
C          C       0.02079   0.55939   0.05459  -0.14456
C          C       0.46260   0.43410   0.14169  -0.13516
C          C       0.56265   0.01901   0.23795  -0.13286
C          C       0.97963   0.54207   0.06726  -0.12917
C          C       0.71564   0.35943   0.24282   0.07508
C          C       0.64328   0.34266   0.23700   0.07932
C          C       0.65895   0.28569   0.26672   0.08072
C          C       0.68590   0.37194   0.23111  -0.17898
C          C       0.63010   0.29974   0.24753  -0.18378
C          C       0.70168   0.31567   0.26543  -0.19271
C          C       0.76058   0.39162   0.24010   0.05331
C          C       0.61359   0.35584   0.24467   0.06042
C          C       0.64355   0.23932   0.29900   0.05683
C          C       0.62037   0.39812   0.18078  -0.11526
C          C       0.60585   0.21349   0.19598  -0.11762
C          C       0.78962   0.38349   0.20565  -0.11839
C          C       0.59322   0.41023   0.19968  -0.16450
C          C       0.58980   0.16951   0.23271  -0.16099
C          C       0.83230   0.41315   0.21505  -0.16234
C          C       0.55836   0.38006   0.28545   0.20806
C          C       0.61116   0.15026   0.37682   0.20131
C          C       0.84724   0.45243   0.25836   0.20589
C          C       0.55091   0.33772   0.34785  -0.16213
C          C       0.64863   0.17556   0.48107  -0.16183
C          C       0.81871   0.46138   0.28916  -0.16552
C          C       0.57797   0.32601   0.32640  -0.12815
C          C       0.66486   0.21961   0.44112  -0.13019
C          C       0.77630   0.43159   0.27955  -0.12625
C          C       0.52297   0.41949   0.26342   0.18240
C          C       0.57082   0.07732   0.34529   0.18187
C          C       0.92049   0.48965   0.23226   0.18637
C          C       0.50583   0.44467   0.23735  -0.08496
C          C       0.54625   0.03905   0.29906  -0.08287
C          C       0.95966   0.50471   0.20541  -0.08589
C          C       0.52704   0.48347   0.30247   0.06784
C          C       0.50242   0.01298   0.31400   0.08710
C          C       0.98647   0.48625   0.31618   0.08902
C          C       0.50782   0.50572   0.29458   0.08664
C          C       0.47965   0.97199   0.29363   0.07610
C          C       0.02742   0.50359   0.30384   0.06848
C          C       0.57411   0.53833   0.44102   0.17800
C          C       0.43683   0.98839   0.35443   0.18434
C          C       0.01195   0.44381   0.51709   0.18291
C          C       0.28104   0.65195   0.63126   0.07870
C          C       0.34808   0.65404   0.65666   0.08141
C          C       0.34742   0.71817   0.66256   0.07767
C          C       0.30390   0.63179   0.63972  -0.18819
C          C       0.36913   0.69699   0.66831  -0.18179
C          C       0.30313   0.69523   0.63998  -0.19607
C          C       0.23514   0.62782   0.63230   0.04827
C          C       0.37191   0.63181   0.67512   0.04705
C          C       0.37101   0.76241   0.69037   0.04190
C          C       0.35388   0.59646   0.59595  -0.12141
C          C       0.41300   0.78914   0.66149  -0.11360
C          C       0.20800   0.64540   0.53184  -0.11976
C          C       0.37432   0.57270   0.62640  -0.17844
C          C       0.43653   0.82985   0.69846  -0.19061
C          C       0.16623   0.62525   0.55422  -0.18772
C          C       0.41389   0.58376   0.74117   0.20518
C          C       0.41829   0.84539   0.76486   0.21320
C          C       0.15032   0.58627   0.67884   0.21217
C          C       0.43315   0.61978   0.81730  -0.18515
C          C       0.37619   0.81976   0.79106  -0.18204
C          C       0.17626   0.56711   0.77358  -0.18407
C          C       0.41246   0.64346   0.78279  -0.11495
C          C       0.35322   0.77917   0.75272  -0.12123
C          C       0.21790   0.58778   0.74861  -0.11795
C          C       0.44827   0.54227   0.75356   0.18478
C          C       0.46225   0.92147   0.78363   0.19142
C          C       0.07409   0.54888   0.70222   0.19711
C          C       0.46487   0.51916   0.74452  -0.08215
C          C       0.48721   0.96359   0.77640  -0.08646
C          C       0.03244   0.53064   0.70145  -0.08812
C          C       0.43920   0.48077   0.66877  -0.13494
C          C       0.53095   0.98573   0.75032  -0.13326
C          C       0.00743   0.55175   0.58594  -0.13656
C          C       0.45481   0.45572   0.66765  -0.13959
C          C       0.55709   0.02753   0.75820  -0.12792
C          C       0.96664   0.53657   0.59758  -0.13160
C          C       0.70076   0.37360   0.73458   0.07352
C          C       0.62899   0.35593   0.74371   0.07748
C          C       0.64372   0.30014   0.74549   0.07405
C          C       0.67165   0.38560   0.73674  -0.17922
C          C       0.61546   0.31319   0.74689  -0.18040
C          C       0.68590   0.33067   0.73796  -0.18135
C          C       0.74630   0.40404   0.73916   0.05504
C          C       0.59941   0.36906   0.75403   0.05754
C          C       0.63107   0.25484   0.76545   0.05605
C          C       0.60595   0.41125   0.68440  -0.11822
C          C       0.59148   0.22600   0.68479  -0.12512
C          C       0.77324   0.39379   0.70076  -0.12051
C          C       0.57945   0.42416   0.70322  -0.16541
C          C       0.57964   0.18283   0.71850  -0.16769
C          C       0.81657   0.42039   0.71833  -0.16226
C          C       0.54520   0.39483   0.79345   0.20941
C          C       0.60704   0.16733   0.83902   0.20743
C          C       0.83454   0.45867   0.77533   0.20119
C          C       0.53747   0.35247   0.85916  -0.15568
C          C       0.64683   0.19578   0.91806  -0.16444
C          C       0.80824   0.47011   0.80941  -0.16121
C          C       0.56414   0.33996   0.83925  -0.12770
C          C       0.65876   0.23887   0.87908  -0.12164
C          C       0.76490   0.44329   0.79088  -0.12885
C          C       0.51248   0.43657   0.77446   0.16857
C          C       0.56983   0.09307   0.82722   0.17881
C          C       0.90693   0.48728   0.75888   0.17096
C          C       0.49806   0.46389   0.75179  -0.08240
C          C       0.54384   0.05339   0.79732  -0.07474
C          C       0.94472   0.49838   0.72903  -0.07124
C          C       0.52335   0.50335   0.81294   0.07771
C          C       0.49975   0.03214   0.80499   0.09134
C          C       0.96840   0.47569   0.82612   0.09029
C          C       0.50843   0.52932   0.80699   0.08947
C          C       0.47373   0.99079   0.79524   0.07807
C          C       0.00881   0.49064   0.81283   0.08564
C          C       0.57633   0.55799   0.93923   0.18388
C          C       0.43732   0.01511   0.84998   0.18467
C          C       0.99085   0.43103   0.02594   0.18588
N          N       0.42425   0.52442   0.26889  -0.18179
N          N       0.46402   0.87043   0.29495  -0.18057
N          N       0.12794   0.58308   0.21030  -0.17940
N          N       0.53226   0.39045   0.32789  -0.22193
N          N       0.59571   0.10578   0.43084  -0.24233
N          N       0.89014   0.48272   0.28725  -0.23823
N          N       0.43088   0.55591   0.79983  -0.18254
N          N       0.44367   0.88296   0.82931  -0.17149
N          N       0.11203   0.57095   0.72800  -0.16906
N          N       0.52057   0.40667   0.83945  -0.22287
N          N       0.59408   0.12346   0.90213  -0.23594
N          N       0.87861   0.48503   0.81313  -0.24366
O          O       0.53600   0.54236   0.36328  -0.22108
O          O       0.43954   0.95324   0.33364  -0.22942
O          O       0.04689   0.48176   0.44119  -0.23307
O          O       0.56998   0.50442   0.37585  -0.23273
O          O       0.47888   0.02439   0.36657  -0.21905
O          O       0.97579   0.45138   0.45987  -0.21929
O          O       0.54072   0.56636   0.86553  -0.22542
O          O       0.43211   0.97985   0.79236  -0.23723
O          O       0.02294   0.46096   0.91519  -0.23358
O          O       0.56685   0.52148   0.87588  -0.23515
O          O       0.47744   0.05115   0.81253  -0.22929
O          O       0.95322   0.43539   0.93906  -0.22786

