data_crystal

_audit_creation_method 'AiiDA-DDEC plugin'

_cell_length_a        20.12133
_cell_length_b        14.38951
_cell_length_c        12.20420

_cell_angle_alpha     70.85327
_cell_angle_beta     108.54489
_cell_angle_gamma     118.70555

_symmetry_space_group_name_Hall 'P 1'
_symmetry_space_group_name_H-M  'P 1'

loop_
_symmetry_equiv_pos_as_xyz
 'x,y,z'

loop_
_atom_site_label
_atom_site_type_symbol
_atom_site_fract_x
_atom_site_fract_y
_atom_site_fract_z
_atom_site_charge
H          H       0.45088   0.19454   0.93236   0.06476
H          H       0.55463   0.80236   0.07046   0.06465
H          H       0.33463   0.45761   0.73394   0.10648
H          H       0.66733   0.53230   0.27184   0.10688
H          H       0.32743   0.60865   0.77344   0.10608
H          H       0.67159   0.38081   0.22840   0.10616
H          H       0.58048   0.64005   0.75716   0.10279
H          H       0.42010   0.35996   0.23574   0.10294
H          H       0.04391   0.60331   0.29937   0.11384
H          H       0.95896   0.40950   0.68445   0.11585
H          H       0.09048   0.45069   0.66475   0.11663
H          H       0.91258   0.56320   0.31918   0.11690
H          H       0.92590   0.92468   0.72395   0.06426
H          H       0.06935   0.06877   0.30164   0.06197
H          H       0.11137   0.49989   0.31314   0.06434
H          H       0.89143   0.50483   0.67517   0.06169
H          H       0.67105   0.81948   0.22987   0.09079
H          H       0.33432   0.17167   0.77546   0.08946
H          H       0.61681   0.87443   0.25570   0.09338
H          H       0.39116   0.12245   0.74691   0.09280
H          H       0.52930   0.76719   0.40495   0.10212
H          H       0.47408   0.23069   0.59357   0.10248
H          H       0.52354   0.63807   0.48829   0.08983
H          H       0.47920   0.36032   0.51361   0.08882
H          H       0.76289   0.78889   0.38594   0.10516
H          H       0.24289   0.19114   0.63715   0.10378
H          H       0.87301   0.86951   0.53902   0.10135
H          H       0.12848   0.11623   0.48684   0.09958
H          H       0.71813   0.84795   0.72999   0.11246
H          H       0.27463   0.17166   0.25984   0.11035
H          H       0.60742   0.76843   0.57636   0.10066
H          H       0.39000   0.24479   0.41173   0.09777
H          H       0.60459   0.55749   0.45242   0.09673
H          H       0.39713   0.43632   0.55109   0.09685
H          H       0.66374   0.63466   0.34652   0.08965
H          H       0.33938   0.35858   0.65885   0.08942
H          H       0.29834   0.62449   0.52428   0.10460
H          H       0.70241   0.37276   0.47155   0.10340
H          H       0.42679   0.66883   0.49483   0.10273
H          H       0.57486   0.32455   0.50725   0.10329
H          H       0.47070   0.79441   0.19092   0.09471
H          H       0.53577   0.20435   0.81274   0.09429
H          H       0.42347   0.68568   0.11649   0.08313
H          H       0.58176   0.31490   0.88437   0.08277
H          H       0.41538   0.49577   0.23517   0.09178
H          H       0.58773   0.50041   0.76746   0.09197
H          H       0.45734   0.47782   0.38678   0.09251
H          H       0.54597   0.51949   0.61582   0.09232
H          H       0.49940   0.60391   0.08102   0.09494
H          H       0.50309   0.39181   0.92226   0.09448
H          H       0.60102   0.65915   0.12284   0.09360
H          H       0.40159   0.33468   0.87863   0.09247
H          H       0.32002   0.54067   0.17752   0.10344
H          H       0.68532   0.45854   0.82064   0.10419
H          H       0.19191   0.49529   0.20906   0.10529
H          H       0.81246   0.50687   0.78323   0.10155
H          H       0.01697   0.21973   0.43637   0.00816
H          H       0.91715   0.70492   0.68768  -0.00647
H          H       0.98359   0.94092   0.21226   0.11218
H          H       0.00279   0.08575   0.78766   0.11305
H          H       0.11752   0.15639   0.94434   0.11635
H          H       0.86899   0.87251   0.05614   0.11723
H          H       0.38902   0.83170   0.97703   0.10427
H          H       0.60615   0.16116   0.01793   0.10478
H          H       0.38704   0.93658   0.85441   0.11016
H          H       0.60955   0.05763   0.14147   0.10923
H          H       0.61965   0.01401   0.96289   0.11501
H          H       0.37626   0.97834   0.03400   0.11528
H          H       0.38553   0.77458   0.83303   0.05917
H          H       0.61119   0.21618   0.16485   0.05870
H          H       0.57273   0.79123   0.79870   0.11532
H          H       0.42500   0.20790   0.19172   0.11348
H          H       0.05392   0.21807   0.44609  -0.00504
H          H       0.87770   0.69983   0.66409   0.00906
C          C       0.07535   0.52716   0.48070   0.19854
C          C       0.92731   0.48562   0.50318   0.19689
C          C       0.02469   0.55942   0.38301  -0.18017
C          C       0.97816   0.45370   0.60085  -0.18118
C          C       0.05122   0.47558   0.58996  -0.16135
C          C       0.95163   0.53788   0.39403  -0.16014
C          C      -0.00099   0.05326   0.88063  -0.18113
C          C       0.98792   0.97414   0.11955  -0.17547
C          C       0.92377   0.93478   0.03274  -0.15827
C          C       0.06288   0.09338   0.96760  -0.15277
C          C       0.92849   0.97137   0.91201   0.20096
C          C       0.05893   0.05494   0.08852   0.19537
C          C       0.49668   0.05693   0.07073   0.18082
C          C       0.49931   0.93555   0.92621   0.18315
C          C       0.57341   0.07445   0.05443  -0.21543
C          C       0.42250   0.91848   0.94177  -0.21596
C          C       0.42933   0.98496   0.01993  -0.13939
C          C       0.56663   0.00756   0.97696  -0.14085
C          C       0.55261   0.20145   0.16662   0.05974
C          C       0.44438   0.79106   0.83045   0.05970
C          C       0.54832   0.28353   0.20591   0.04924
C          C       0.44998   0.71024   0.79090   0.04934
C          C       0.47780   0.27911   0.21041  -0.10449
C          C       0.52087   0.71787   0.78346  -0.10717
C          C       0.86928   0.90832   0.73715   0.06949
C          C       0.12435   0.09830   0.27379   0.07059
C          C       0.16008   0.53263   0.38392   0.07236
C          C       0.84238   0.47304   0.60437   0.07127
C          C       0.61591   0.79848   0.25183  -0.23933
C          C       0.38963   0.19645   0.75170  -0.23686
C          C       0.60815   0.71977   0.37412   0.13293
C          C       0.39532   0.27521   0.62948   0.13363
C          C       0.53013   0.69248   0.40096  -0.26282
C          C       0.47302   0.30437   0.60019  -0.26103
C          C       0.67582   0.77089   0.46901   0.07612
C          C       0.32594   0.22506   0.53629   0.07318
C          C       0.75207   0.80133   0.46071  -0.14020
C          C       0.25084   0.18710   0.55507  -0.14018
C          C       0.81453   0.84696   0.54715  -0.12724
C          C       0.18601   0.14485   0.47027  -0.13127
C          C       0.80316   0.86360   0.64599   0.04204
C          C       0.19363   0.13967   0.36199   0.04395
C          C       0.72723   0.83465   0.65414  -0.10408
C          C       0.26848   0.17629   0.34305  -0.10415
C          C       0.66519   0.78963   0.56711  -0.14955
C          C       0.33304   0.21759   0.42890  -0.14530
C          C       0.60816   0.61433   0.36618  -0.25876
C          C       0.39477   0.38004   0.63773  -0.25725
C          C       0.46188   0.63912   0.30667   0.13432
C          C       0.54184   0.35791   0.69445   0.13671
C          C       0.38396   0.60982   0.33239   0.07093
C          C       0.61947   0.38762   0.66712   0.06731
C          C       0.23639   0.55792   0.36866   0.04107
C          C       0.76628   0.44348   0.62411   0.04162
C          C       0.30383   0.60665   0.44847  -0.10066
C          C       0.69802   0.39145   0.54765  -0.09934
C          C       0.37614   0.63185   0.43056  -0.14111
C          C       0.62618   0.36419   0.56899  -0.14088
C          C       0.47203   0.72023   0.18619  -0.23630
C          C       0.53316   0.27808   0.81586  -0.23853
C          C       0.46470   0.53504   0.30109  -0.26097
C          C       0.53861   0.46150   0.70102  -0.25951
C          C       0.54806   0.64147   0.14921  -0.23579
C          C       0.45532   0.35402   0.85332  -0.23451
C          C       0.31604   0.55964   0.25380  -0.14036
C          C       0.68818   0.43933   0.74363  -0.13966
C          C       0.24360   0.53407   0.27120  -0.12966
C          C       0.76012   0.46655   0.72302  -0.12894
C          C       0.54088   0.55988   0.27002   0.13316
C          C       0.46225   0.43556   0.73256   0.13392
C          C       0.54839   0.74609   0.15643   0.03246
C          C       0.45666   0.25049   0.84632   0.02796
C          C       0.61355   0.46198   0.25476  -0.13497
C          C       0.38747   0.52997   0.74777  -0.13626
C          C       0.61623   0.37595   0.23041  -0.13300
C          C       0.38312   0.61559   0.76997  -0.13096
C          C       0.54322   0.45961   0.25664   0.07082
C          C       0.45840   0.53519   0.74422   0.07135
C          C       0.47577   0.36545   0.23520  -0.14729
C          C       0.52459   0.63197   0.76055  -0.14985
N          N       0.49123   0.12171   0.12846  -0.30611
N          N       0.50525   0.87127   0.86857  -0.30815
N          N       0.14940   0.54604   0.47563  -0.29397
N          N       0.85290   0.46469   0.50947  -0.29570
N          N       0.86226   0.92485   0.83007  -0.29251
N          N       0.12710   0.09860   0.16920  -0.30122

