data_crystal

_audit_creation_method 'AiiDA-DDEC plugin'

_cell_length_a        25.43682
_cell_length_b        18.89153
_cell_length_c        10.48027

_cell_angle_alpha     81.85105
_cell_angle_beta     83.04758
_cell_angle_gamma     111.20092

_symmetry_space_group_name_Hall 'P 1'
_symmetry_space_group_name_H-M  'P 1'

loop_
_symmetry_equiv_pos_as_xyz
 'x,y,z'

loop_
_atom_site_label
_atom_site_type_symbol
_atom_site_fract_x
_atom_site_fract_y
_atom_site_fract_z
_atom_site_charge
H          H       0.05724   0.07177   0.29700   0.11015
H          H       0.94370   0.00100   0.69578   0.11196
H          H       0.02320   0.97470   0.70962   0.11196
H          H       0.98154   0.96270   0.30613   0.11033
H          H       0.16113   0.13062   0.30041   0.10740
H          H       0.83984   0.94531   0.69122   0.10788
H          H       0.24063   0.16221   0.42079   0.06881
H          H       0.76030   0.88110   0.58262   0.06863
H          H       0.32911   0.14000   0.47088   0.11504
H          H       0.67169   0.86405   0.52923   0.11072
H          H       0.42629   0.21738   0.50224   0.09986
H          H       0.57556   0.78926   0.49212   0.10146
H          H       0.35284   0.28696   0.83037   0.10037
H          H       0.65013   0.70958   0.17971   0.10326
H          H       0.25567   0.20670   0.80169   0.11545
H          H       0.74692   0.78550   0.21701   0.11444
H          H       0.12749   0.03658   0.71363   0.11506
H          H       0.87719   0.90854   0.30067   0.11226
H          H       0.75792   0.37088   0.13855   0.07130
H          H       0.23796   0.58632   0.85574   0.06833
H          H       0.60740   0.36293   0.80387   0.08683
H          H       0.39694   0.64684   0.18810   0.08476
H          H       0.56608   0.26845   0.78562   0.09632
H          H       0.44024   0.73977   0.20928   0.09484
H          H       0.50508   0.24889   0.60668   0.09414
H          H       0.49755   0.75596   0.39001   0.09649
H          H       0.50566   0.33073   0.49862   0.08945
H          H       0.49562   0.67392   0.49989   0.09340
H          H       0.42682   0.04430   0.95723   0.11576
H          H       0.58821   0.99188   0.95959   0.11089
H          H       0.56862   0.03349   0.13506   0.11128
H          H       0.40626   0.92208   0.97001   0.11267
H          H       0.42660   0.15229   0.06640   0.11378
H          H       0.58725   0.88178   0.85404   0.11664
H          H       0.56941   0.14295   0.23933   0.10847
H          H       0.40654   0.81567   0.85813   0.10665
H          H       0.53458   0.24346   0.27294   0.06254
H          H       0.45242   0.74068   0.77013   0.06116
H          H       0.01895   0.56426   0.78730   0.11382
H          H       0.98194   0.49010   0.22597   0.11122
H          H       0.05826   0.46832   0.14383   0.11174
H          H       0.94018   0.44607   0.85106   0.11207
H          H       0.16147   0.52521   0.04376   0.10520
H          H       0.83694   0.39053   0.94954   0.10904
H          H       0.32839   0.57523   0.33057   0.09977
H          H       0.67464   0.44325   0.64604   0.10373
H          H       0.23790   0.56639   0.46018   0.11758
H          H       0.76432   0.45085   0.51312   0.11656
H          H       0.33173   0.69727   0.71966   0.10201
H          H       0.66686   0.29246   0.29260   0.10724
H          H       0.42312   0.71038   0.58504   0.09213
H          H       0.57690   0.28209   0.42920   0.08975
H          H       0.39326   0.52651   0.34797   0.08341
H          H       0.60733   0.47914   0.65010   0.08339
H          H       0.43434   0.53805   0.47321   0.09988
H          H       0.56570   0.46730   0.52554   0.09625
H          H       0.58078   0.72782   0.09388   0.09168
H          H       0.42333   0.27329   0.90698   0.08947
H          H       0.54754   0.78717   0.15355   0.09203
H          H       0.45802   0.21699   0.84173   0.08841
H          H       0.54342   0.58582   0.41545   0.09616
H          H       0.45798   0.41620   0.58316   0.09779
H          H       0.57745   0.60888   0.24906   0.08641
H          H       0.42291   0.39332   0.74852   0.08582
H          H       0.44309   0.55747   0.10778   0.08570
H          H       0.55753   0.44753   0.89233   0.09009
H          H       0.51838   0.59028   0.06716   0.09537
H          H       0.48196   0.41035   0.93225   0.09289
H          H       0.48728   0.70079   0.02320   0.05946
H          H       0.51768   0.30427   0.97338   0.06234
H          H       0.38702   0.42601   0.30431   0.10637
H          H       0.61130   0.58462   0.64641   0.10794
H          H       0.12275   0.61848   0.68557   0.11678
H          H       0.87813   0.43297   0.32412   0.11182
H          H       0.37986   0.29762   0.26489   0.11314
H          H       0.61850   0.71305   0.68362   0.11327
H          H       0.56337   0.37235   0.21676   0.10654
H          H       0.43667   0.62185   0.83168   0.10583
H          H       0.57083   0.50019   0.25326   0.10647
H          H       0.42965   0.49315   0.80070   0.10564
C          C       0.97043   0.98619   0.50125   0.06490
C          C       0.03242   0.01937   0.50310   0.06620
C          C       0.92932   0.97991   0.60967  -0.14226
C          C       0.07253   0.06257   0.38796  -0.13906
C          C       0.95058   0.96021   0.38957  -0.13839
C          C       0.05330   0.00973   0.62044  -0.13981
C          C       0.87084   0.94919   0.60646  -0.13138
C          C       0.13094   0.09614   0.39012  -0.13150
C          C       0.79018   0.88880   0.49168   0.06233
C          C       0.21159   0.12823   0.51370   0.06665
C          C       0.60462   0.74217   0.33423   0.05851
C          C       0.39763   0.25953   0.66769   0.05269
C          C       0.71661   0.82851   0.37684   0.19203
C          C       0.28561   0.16989   0.63245   0.19608
C          C       0.66748   0.82982   0.45295  -0.17953
C          C       0.33432   0.17316   0.54865  -0.18735
C          C       0.61262   0.78744   0.43102  -0.12869
C          C       0.38947   0.21694   0.56751  -0.13274
C          C       0.65422   0.74266   0.25740  -0.13983
C          C       0.34823   0.25523   0.75083  -0.13747
C          C       0.70876   0.78513   0.27693  -0.15591
C          C       0.29351   0.21045   0.73592  -0.16569
C          C       0.85144   0.92365   0.49457   0.05172
C          C       0.15118   0.08776   0.50813   0.04984
C          C       0.89251   0.92967   0.38596  -0.10704
C          C       0.11136   0.04319   0.62307  -0.10632
C          C       0.49746   0.02994   0.03834   0.06725
C          C       0.49724   0.96543   0.97352   0.06809
C          C       0.45729   0.06451   0.02134  -0.13762
C          C       0.54810   0.95264   0.93960  -0.13670
C          C       0.53771   0.05960   0.11816  -0.13824
C          C       0.44636   0.91493   0.94247  -0.13477
C          C       0.45706   0.12516   0.08159  -0.10229
C          C       0.54817   0.89197   0.87892  -0.10057
C          C       0.53782   0.12086   0.17822  -0.12843
C          C       0.44642   0.85471   0.88001  -0.12578
C          C       0.49957   0.22143   0.21868   0.06319
C          C       0.49415   0.77385   0.79438   0.06249
C          C       0.47969   0.47498   0.27940   0.06219
C          C       0.51982   0.52753   0.72140   0.06067
C          C       0.49744   0.15472   0.16112   0.05207
C          C       0.49708   0.84177   0.84825   0.05038
C          C       0.05005   0.55448   0.84275  -0.13867
C          C       0.95040   0.46720   0.16548  -0.13837
C          C       0.07213   0.50231   0.04426  -0.13650
C          C       0.92693   0.44442   0.95451  -0.14235
C          C       0.13023   0.53408   0.98776  -0.13097
C          C       0.86861   0.41245   0.01044  -0.13286
C          C       0.20854   0.59601   0.79274   0.06543
C          C       0.78970   0.38483   0.20324   0.06154
C          C       0.43748   0.67980   0.21683  -0.24333
C          C       0.56681   0.32745   0.77806  -0.24257
C          C       0.43730   0.64626   0.36098   0.13710
C          C       0.56482   0.35958   0.63480   0.13822
C          C       0.49449   0.69585   0.39759  -0.25986
C          C       0.50757   0.30870   0.60022  -0.25839
C          C       0.38340   0.64305   0.44793   0.05729
C          C       0.61829   0.36341   0.54584   0.06146
C          C       0.32992   0.60257   0.41539  -0.13445
C          C       0.67223   0.41057   0.56792  -0.13562
C          C       0.27874   0.59706   0.48752  -0.16761
C          C       0.72279   0.41526   0.49430  -0.15758
C          C       0.27812   0.62904   0.60089   0.20313
C          C       0.72225   0.37485   0.39101   0.19826
C          C       0.33105   0.66987   0.63488  -0.18886
C          C       0.66869   0.32673   0.36837  -0.18403
C          C       0.38269   0.67718   0.55820  -0.13968
C          C       0.61784   0.32109   0.44586  -0.14363
C          C       0.43431   0.56202   0.37123  -0.25617
C          C       0.56651   0.44297   0.62675  -0.25799
C          C       0.54624   0.69450   0.30483   0.13838
C          C       0.45597   0.30858   0.69492   0.13903
C          C       0.54397   0.72681   0.16187  -0.24160
C          C       0.46012   0.27653   0.83630  -0.24326
C          C       0.54072   0.60918   0.31521  -0.25921
C          C       0.46024   0.39335   0.68410  -0.25836
C          C       0.48319   0.59321   0.13551  -0.23743
C          C       0.51824   0.41022   0.86362  -0.23602
C          C       0.48453   0.55817   0.27792   0.13136
C          C       0.51620   0.44511   0.72172   0.13339
C          C       0.48785   0.67722   0.12463   0.03872
C          C       0.51606   0.32747   0.87251   0.03896
C          C       0.42610   0.41517   0.28536  -0.13661
C          C       0.57254   0.59158   0.68732  -0.13752
C          C       0.14894   0.57455   0.85678   0.05109
C          C       0.85039   0.40888   0.14423   0.05187
C          C       0.10791   0.58585   0.78608  -0.10803
C          C       0.89261   0.43561   0.22102  -0.10745
C          C       0.03069   0.51040   0.97210   0.06493
C          C       0.96900   0.47368   0.03033   0.06794
C          C       0.42153   0.34250   0.26322  -0.15276
C          C       0.57710   0.66469   0.70735  -0.15054
C          C       0.47073   0.32529   0.23758   0.18983
C          C       0.52838   0.67778   0.75754   0.19063
C          C       0.52439   0.38340   0.23749  -0.17169
C          C       0.47500   0.61441   0.78870  -0.17416
C          C       0.52842   0.45644   0.25787  -0.13128
C          C       0.47120   0.54116   0.77139  -0.12955
N          N       0.77397   0.86615   0.38722  -0.29192
N          N       0.22860   0.12769   0.62468  -0.28363
N          N       0.46335   0.25395   0.20289  -0.28342
N          N       0.53656   0.75135   0.78353  -0.28930
N          N       0.22357   0.61788   0.66706  -0.28224
N          N       0.77680   0.38705   0.32511  -0.28595

