data_crystal

_audit_creation_method 'AiiDA-DDEC plugin'

_cell_length_a        30.11079
_cell_length_b        30.09909
_cell_length_c         9.72236

_cell_angle_alpha     89.74709
_cell_angle_beta     90.81285
_cell_angle_gamma     120.12103

_symmetry_space_group_name_Hall 'P 1'
_symmetry_space_group_name_H-M  'P 1'

loop_
_symmetry_equiv_pos_as_xyz
 'x,y,z'

loop_
_atom_site_label
_atom_site_type_symbol
_atom_site_fract_x
_atom_site_fract_y
_atom_site_fract_z
_atom_site_charge
H          H       0.41989   0.00407   0.27509   0.10806
H          H       0.99888   0.41484   0.24634   0.10917
H          H       0.58476   0.58311   0.25677   0.10879
H          H       0.57863   0.99709   0.22623   0.10871
H          H       0.00261   0.57982   0.21686   0.10737
H          H       0.42010   0.42099   0.22607   0.10872
H          H       0.63050   0.05875   0.39897   0.10914
H          H       0.94144   0.57057   0.37081   0.10831
H          H       0.42933   0.37176   0.38926   0.10941
H          H       0.71967   0.13286   0.39720   0.12628
H          H       0.86598   0.58270   0.36541   0.12521
H          H       0.41542   0.28351   0.39655   0.12705
H          H       0.67194   0.21184   0.11558   0.11126
H          H       0.78447   0.44837   0.11089   0.11101
H          H       0.54942   0.33182   0.15043   0.10848
H          H       0.58277   0.13824   0.12048   0.10108
H          H       0.85977   0.43619   0.11631   0.10188
H          H       0.56204   0.41943   0.13788   0.10259
H          H       0.37442   0.93064   0.42606   0.11129
H          H       0.07093   0.44185   0.40683   0.11259
H          H       0.55971   0.62841   0.40982   0.11150
H          H       0.28921   0.85144   0.43372   0.11188
H          H       0.15039   0.43640   0.41915   0.11226
H          H       0.56439   0.71275   0.42138   0.11235
H          H       0.32546   0.79482   0.07193   0.11341
H          H       0.20912   0.53494   0.06701   0.11332
H          H       0.45891   0.67000   0.07831   0.11490
H          H       0.41155   0.87361   0.06690   0.10604
H          H       0.13015   0.54160   0.05623   0.10617
H          H       0.45296   0.58487   0.06932   0.10655
H          H       0.56325   0.12857   0.43806   0.10543
H          H       0.88223   0.42801   0.43886   0.10340
H          H       0.57704   0.45482   0.45352   0.10290
H          H       0.56452   0.21099   0.46540   0.10516
H          H       0.80059   0.34559   0.47214   0.10519
H          H       0.66018   0.45671   0.47755   0.10631
H          H       0.44241   0.16186   0.16517   0.11579
H          H       0.83697   0.27987   0.13062   0.11479
H          H       0.71739   0.55602   0.12594   0.11479
H          H       0.44127   0.07906   0.13800   0.11434
H          H       0.91882   0.36261   0.09771   0.11372
H          H       0.63404   0.55457   0.10393   0.11398
H          H       0.44522   0.86252   0.37967   0.10494
H          H       0.14048   0.58057   0.36109   0.10454
H          H       0.41545   0.54907   0.38493   0.10324
H          H       0.45005   0.78350   0.35167   0.12309
H          H       0.21866   0.66558   0.33730   0.12301
H          H       0.33096   0.54361   0.35440   0.12234
H          H       0.55318   0.85248   0.01421   0.11779
H          H       0.14309   0.70624   0.02423   0.11848
H          H       0.29856   0.44512   0.00302   0.11801
H          H       0.55010   0.93263   0.04558   0.10891
H          H       0.06444   0.62129   0.04956   0.10963
H          H       0.38247   0.44911   0.03716   0.10911
H          H       0.73636   0.26236   0.38610   0.06736
H          H       0.74260   0.47928   0.39744   0.06780
H          H       0.54006   0.27174   0.38576   0.06399
H          H       0.23889   0.46935   0.35432   0.07052
H          H       0.52812   0.76648   0.36085   0.07111
H          H       0.23317   0.76283   0.36373   0.07164
H          H       0.42059   0.00426   0.76546   0.10785
H          H       0.99660   0.41841   0.76354   0.10603
H          H       0.58172   0.57929   0.77143   0.10712
H          H       0.57913   0.99664   0.72635   0.10857
H          H       0.00174   0.58315   0.70482   0.10995
H          H       0.41581   0.41901   0.72392   0.11090
H          H       0.63152   0.05650   0.89177   0.10998
H          H       0.94080   0.57367   0.87320   0.10952
H          H       0.43201   0.37097   0.91135   0.10941
H          H       0.72069   0.13036   0.89321   0.12712
H          H       0.86560   0.58652   0.87224   0.12561
H          H       0.41950   0.28296   0.91842   0.12681
H          H       0.67274   0.21426   0.63113   0.10817
H          H       0.78469   0.45677   0.60184   0.10958
H          H       0.53598   0.32601   0.61281   0.11046
H          H       0.58400   0.14036   0.62807   0.10143
H          H       0.85980   0.44459   0.60039   0.10210
H          H       0.54827   0.41361   0.60650   0.09978
H          H       0.37260   0.93489   0.91037   0.11479
H          H       0.06873   0.44276   0.90844   0.11494
H          H       0.55455   0.62589   0.92269   0.11422
H          H       0.28661   0.85683   0.91854   0.11283
H          H       0.14788   0.43703   0.91686   0.11257
H          H       0.55883   0.71015   0.92905   0.11191
H          H       0.32633   0.79168   0.58230   0.11410
H          H       0.20557   0.53606   0.56544   0.11401
H          H       0.46289   0.66956   0.56607   0.11454
H          H       0.41291   0.86976   0.57511   0.10622
H          H       0.12714   0.54365   0.55998   0.10605
H          H       0.45729   0.58449   0.56225   0.10479
H          H       0.56028   0.12741   0.93791   0.10443
H          H       0.86877   0.43481   0.90906   0.10749
H          H       0.56785   0.43616   0.92560   0.10742
H          H       0.55945   0.20884   0.96619   0.10558
H          H       0.78762   0.35213   0.93319   0.10573
H          H       0.65116   0.43851   0.94410   0.10593
H          H       0.44161   0.16029   0.65396   0.11625
H          H       0.84515   0.27921   0.66750   0.11696
H          H       0.71708   0.56331   0.65599   0.11520
H          H       0.44284   0.07873   0.62476   0.11468
H          H       0.92577   0.36275   0.63851   0.11411
H          H       0.63321   0.56065   0.63660   0.11335
H          H       0.44712   0.86332   0.88215   0.10474
H          H       0.13284   0.58738   0.88225   0.10430
H          H       0.41588   0.55326   0.87463   0.10288
H          H       0.45057   0.78353   0.85363   0.12305
H          H       0.21171   0.67240   0.86096   0.12179
H          H       0.33206   0.54894   0.84508   0.12315
H          H       0.55221   0.85107   0.51188   0.11719
H          H       0.14933   0.70221   0.49412   0.11602
H          H       0.29385   0.44194   0.51120   0.11685
H          H       0.54999   0.93150   0.54344   0.10942
H          H       0.06955   0.61807   0.51933   0.11159
H          H       0.37723   0.44514   0.54376   0.10983
H          H       0.73043   0.26600   0.85956   0.06302
H          H       0.73703   0.46936   0.87333   0.06776
H          H       0.53445   0.26895   0.88543   0.06647
H          H       0.23665   0.47142   0.85412   0.07097
H          H       0.52529   0.76416   0.86009   0.07006
H          H       0.23007   0.76614   0.85712   0.07207
C          C       0.54790   0.04683   0.25462   0.03588
C          C       0.95382   0.49842   0.23844   0.03491
C          C       0.50155   0.45403   0.25192   0.03421
C          C       0.50210   0.04894   0.26804   0.01779
C          C       0.95323   0.45102   0.24620   0.01808
C          C       0.54901   0.50108   0.25884   0.01847
C          C       0.45504   0.00256   0.26423  -0.17790
C          C      -0.00008   0.45147   0.24027  -0.17742
C          C       0.54826   0.54725   0.25071  -0.17971
C          C       0.45082   0.95425   0.24775   0.01894
C          C       0.04776   0.49651   0.22908   0.01792
C          C       0.50302   0.54970   0.23761   0.01914
C          C       0.49657   0.95216   0.23345   0.03547
C          C       0.04865   0.54405   0.22010   0.03363
C          C       0.45572   0.50280   0.22765   0.03606
C          C       0.54348   0.99856   0.23713  -0.18495
C          C       0.00168   0.54328   0.22440  -0.18629
C          C       0.45660   0.45675   0.23416  -0.18506
C          C       0.60028   0.09239   0.25647   0.04145
C          C       0.90716   0.50324   0.24066   0.04235
C          C       0.49622   0.40238   0.26065   0.04384
C          C       0.50194   0.09768   0.28746   0.07924
C          C       0.90574   0.40109   0.26641   0.08265
C          C       0.59940   0.50386   0.27643   0.08123
C          C       0.49790   0.90394   0.21641   0.04245
C          C       0.09628   0.59454   0.20794   0.04223
C          C       0.40524   0.49979   0.21258   0.04371
C          C       0.39902   0.90787   0.24579   0.07287
C          C       0.09455   0.49190   0.22993   0.07284
C          C       0.50664   0.60065   0.23742   0.07280
C          C       0.63971   0.09188   0.33464  -0.12187
C          C       0.90751   0.54418   0.31110  -0.12109
C          C       0.45506   0.36291   0.33357  -0.12357
C          C       0.68975   0.13345   0.33466  -0.17986
C          C       0.86501   0.55107   0.30925  -0.18318
C          C       0.44713   0.31324   0.33873  -0.17099
C          C       0.70164   0.17733   0.25665   0.20778
C          C       0.82012   0.51655   0.23676   0.21038
C          C       0.48160   0.30158   0.27441   0.20731
C          C       0.66250   0.17832   0.17840  -0.18956
C          C       0.81909   0.47516   0.16731  -0.19198
C          C       0.52328   0.34085   0.20302  -0.19225
C          C       0.61278   0.13656   0.17925  -0.11945
C          C       0.86173   0.46872   0.16981  -0.11838
C          C       0.53001   0.39006   0.19533  -0.11835
C          C       0.36327   0.90149   0.34653  -0.14125
C          C       0.10052   0.46132   0.33014  -0.14034
C          C       0.53866   0.63790   0.33472  -0.14014
C          C       0.31543   0.85687   0.35098  -0.12024
C          C       0.14521   0.45841   0.33769  -0.12273
C          C       0.54110   0.68524   0.34168  -0.12348
C          C       0.30138   0.81785   0.25256   0.04173
C          C       0.18471   0.48485   0.24285   0.04359
C          C       0.51258   0.69742   0.24902   0.04502
C          C       0.33648   0.82482   0.14884  -0.10787
C          C       0.17853   0.51465   0.14062  -0.10853
C          C       0.48111   0.66067   0.14991  -0.10948
C          C       0.38445   0.86891   0.14615  -0.12761
C          C       0.13432   0.51816   0.13489  -0.12727
C          C       0.47800   0.61310   0.14509  -0.12611
C          C       0.53646   0.13565   0.37952  -0.13074
C          C       0.87200   0.39536   0.37210  -0.13300
C          C       0.60780   0.47685   0.38205  -0.13058
C          C       0.53740   0.18205   0.39372  -0.12763
C          C       0.82632   0.34939   0.38962  -0.12483
C          C       0.65429   0.47775   0.39466  -0.12290
C          C       0.50333   0.19194   0.31693   0.04114
C          C       0.81336   0.30744   0.30205   0.03852
C          C       0.69405   0.50570   0.30132   0.03950
C          C       0.46803   0.15375   0.22639  -0.10650
C          C       0.84778   0.31242   0.19866  -0.10495
C          C       0.68659   0.53433   0.19801  -0.10577
C          C       0.46736   0.10747   0.21224  -0.13805
C          C       0.89337   0.35856   0.18123  -0.13868
C          C       0.64010   0.53360   0.18655  -0.13978
C          C       0.46941   0.86090   0.30032  -0.11398
C          C       0.14060   0.60793   0.28758  -0.11456
C          C       0.39004   0.52634   0.30104  -0.11522
C          C       0.47199   0.81631   0.28498  -0.17797
C          C       0.18465   0.65585   0.27504  -0.17754
C          C       0.34264   0.52331   0.28454  -0.17791
C          C       0.50272   0.81300   0.18232   0.20212
C          C       0.18597   0.69212   0.18069   0.20500
C          C       0.30913   0.49399   0.17654   0.20172
C          C       0.53065   0.85551   0.09617  -0.17395
C          C       0.14200   0.67892   0.09959  -0.17844
C          C       0.32405   0.46729   0.08749  -0.17130
C          C       0.52890   0.90042   0.11479  -0.12914
C          C       0.09786   0.63127   0.11474  -0.12763
C          C       0.37100   0.46955   0.10714  -0.13050
C          C       0.76379   0.26040   0.31625   0.07928
C          C       0.74094   0.50250   0.31179   0.08189
C          C       0.50663   0.24191   0.32830   0.07530
C          C       0.23145   0.48172   0.25409   0.07812
C          C       0.51534   0.74714   0.26031   0.07797
C          C       0.25175   0.77052   0.26278   0.08051
C          C       0.54860   0.04669   0.75314   0.03349
C          C       0.95243   0.50237   0.73560   0.03697
C          C       0.49679   0.45082   0.75255   0.03767
C          C       0.50266   0.04879   0.76309   0.02033
C          C       0.95106   0.45475   0.75216   0.01558
C          C       0.54479   0.49703   0.76486   0.01624
C          C       0.45568   0.00249   0.75797  -0.17944
C          C       0.99773   0.45487   0.75047  -0.17533
C          C       0.54503   0.54381   0.76095  -0.17904
C          C       0.45124   0.95403   0.74365   0.01923
C          C       0.04577   0.49921   0.73408   0.01752
C          C       0.50057   0.54738   0.74393   0.02118
C          C       0.49706   0.95188   0.73121   0.03600
C          C       0.04715   0.54674   0.71742   0.03802
C          C       0.45269   0.50119   0.72922   0.03569
C          C       0.54401   0.99826   0.73607  -0.18444
C          C       0.00051   0.54662   0.71795  -0.18507
C          C       0.45248   0.45450   0.73430  -0.18647
C          C       0.60102   0.09224   0.75707   0.04835
C          C       0.90651   0.50853   0.73526   0.04283
C          C       0.49059   0.39873   0.75679   0.04139
C          C       0.50146   0.09706   0.78110   0.08063
C          C       0.90330   0.40498   0.77265   0.07890
C          C       0.59452   0.49844   0.78071   0.07934
C          C       0.49842   0.90356   0.71555   0.04321
C          C       0.09517   0.59680   0.70352   0.04496
C          C       0.40277   0.49930   0.71236   0.04220
C          C       0.39920   0.90801   0.74234   0.07205
C          C       0.09226   0.49409   0.73412   0.07604
C          C       0.50546   0.59891   0.74195   0.07250
C          C       0.64064   0.09055   0.83166  -0.12464
C          C       0.90703   0.54854   0.81117  -0.12330
C          C       0.45423   0.36093   0.84402  -0.12406
C          C       0.69071   0.13193   0.83351  -0.17031
C          C       0.86479   0.55577   0.81201  -0.17569
C          C       0.44722   0.31149   0.84891  -0.17840
C          C       0.70268   0.17746   0.76335   0.20646
C          C       0.81978   0.52208   0.73865   0.20854
C          C       0.47724   0.29865   0.76696   0.20664
C          C       0.66338   0.17967   0.68890  -0.19148
C          C       0.81896   0.48225   0.66153  -0.19343
C          C       0.51362   0.33616   0.67916  -0.18895
C          C       0.61369   0.13770   0.68576  -0.11915
C          C       0.86166   0.47594   0.65979  -0.11600
C          C       0.51988   0.38517   0.67453  -0.11741
C          C       0.36232   0.90407   0.83654  -0.14308
C          C       0.09821   0.46274   0.83180  -0.14383
C          C       0.53524   0.63563   0.84281  -0.14341
C          C       0.31401   0.86011   0.84157  -0.12405
C          C       0.14279   0.45958   0.83693  -0.12230
C          C       0.53742   0.68293   0.84695  -0.12257
C          C       0.30067   0.81907   0.75040   0.04498
C          C       0.18224   0.48631   0.74199   0.04361
C          C       0.51115   0.69566   0.74811   0.04398
C          C       0.33692   0.82335   0.65351  -0.10810
C          C       0.17559   0.51614   0.64077  -0.10787
C          C       0.48277   0.65972   0.64396  -0.10766
C          C       0.38520   0.86696   0.64995  -0.12679
C          C       0.13162   0.52015   0.63784  -0.12937
C          C       0.47991   0.61226   0.64177  -0.12743
C          C       0.53402   0.13448   0.87694  -0.13270
C          C       0.86370   0.40083   0.85641  -0.13173
C          C       0.60051   0.46420   0.86734  -0.12985
C          C       0.53380   0.18029   0.89150  -0.12718
C          C       0.81808   0.35441   0.86918  -0.12886
C          C       0.64724   0.46540   0.87683  -0.12684
C          C       0.50033   0.18994   0.81132   0.03980
C          C       0.81083   0.31001   0.80134   0.04164
C          C       0.68975   0.50100   0.80056   0.04056
C          C       0.46684   0.15222   0.71707  -0.10557
C          C       0.85095   0.31343   0.72103  -0.10768
C          C       0.68438   0.53617   0.71616  -0.10514
C          C       0.46743   0.10659   0.70219  -0.13790
C          C       0.89616   0.36013   0.70655  -0.13695
C          C       0.63761   0.53478   0.70666  -0.13866
C          C       0.47035   0.86094   0.80115  -0.11466
C          C       0.13616   0.61262   0.79782  -0.11643
C          C       0.38915   0.52856   0.79545  -0.11285
C          C       0.47226   0.81597   0.78554  -0.17811
C          C       0.18040   0.66042   0.78657  -0.17698
C          C       0.34199   0.52615   0.77933  -0.17803
C          C       0.50207   0.81189   0.68129   0.20310
C          C       0.18547   0.69361   0.67761   0.20235
C          C       0.30682   0.49456   0.67691   0.20185
C          C       0.52999   0.85425   0.59453  -0.17371
C          C       0.14507   0.67751   0.58089  -0.17231
C          C       0.32027   0.46541   0.59262  -0.17369
C          C       0.52873   0.89944   0.61302  -0.12995
C          C       0.10033   0.63031   0.59558  -0.13249
C          C       0.36705   0.46721   0.61170  -0.12866
C          C       0.76138   0.26259   0.81074   0.07412
C          C       0.73729   0.49903   0.80611   0.07748
C          C       0.50241   0.23935   0.82352   0.07696
C          C       0.22917   0.48334   0.75330   0.08003
C          C       0.51337   0.74516   0.75896   0.07870
C          C       0.25042   0.77254   0.75939   0.07717
N          N       0.75204   0.21888   0.25006  -0.27316
N          N       0.77778   0.52419   0.22558  -0.27596
N          N       0.47278   0.25124   0.27449  -0.27703
N          N       0.26250   0.49279   0.15257  -0.29420
N          N       0.50371   0.76751   0.15897  -0.29239
N          N       0.23093   0.73938   0.16008  -0.29321
N          N       0.75318   0.21902   0.76394  -0.27889
N          N       0.77724   0.52947   0.73623  -0.27843
N          N       0.46929   0.24853   0.76453  -0.27079
N          N       0.26032   0.49375   0.65226  -0.29373
N          N       0.50263   0.76616   0.65732  -0.29395
N          N       0.23097   0.74041   0.65821  -0.29285

