data_crystal

_audit_creation_method 'AiiDA-DDEC plugin'

_cell_length_a        17.39481
_cell_length_b        24.62282
_cell_length_c        10.12277

_cell_angle_alpha     90.20425
_cell_angle_beta     103.85886
_cell_angle_gamma     90.01385

_symmetry_space_group_name_Hall 'P 1'
_symmetry_space_group_name_H-M  'P 1'

loop_
_symmetry_equiv_pos_as_xyz
 'x,y,z'

loop_
_atom_site_label
_atom_site_type_symbol
_atom_site_fract_x
_atom_site_fract_y
_atom_site_fract_z
_atom_site_charge
H          H       0.35748   0.50363   0.22081   0.11092
H          H       0.64727   0.50115   0.29742   0.10778
H          H       0.85809   0.00194   0.22775   0.11033
H          H       0.14542   0.00281   0.27036   0.10893
H          H       0.66287   0.56868   0.14001   0.10974
H          H       0.34063   0.57338   0.36382   0.11076
H          H       0.15982   0.07294   0.12785   0.10853
H          H       0.85700   0.07322   0.39751   0.10880
H          H       0.74769   0.64910   0.14778   0.11521
H          H       0.25710   0.65449   0.34546   0.11491
H          H       0.24326   0.15433   0.14145   0.11462
H          H       0.77552   0.15412   0.39974   0.11299
H          H       0.62463   0.72848   0.41612   0.12131
H          H       0.38994   0.72917   0.08664   0.12288
H          H       0.11930   0.22849   0.41543   0.12290
H          H       0.87127   0.22538   0.08556   0.11859
H          H       0.54031   0.64685   0.41062   0.10876
H          H       0.47162   0.64594   0.09882   0.10777
H          H       0.03632   0.14601   0.40400   0.10828
H          H       0.95326   0.14300   0.08269   0.10901
H          H       0.52021   0.35683   0.39692   0.10572
H          H       0.44702   0.37056   0.05987   0.10789
H          H       0.03997   0.86242   0.40818   0.10742
H          H       0.96615   0.86246   0.08297   0.10463
H          H       0.59772   0.27234   0.41236   0.11121
H          H       0.35866   0.29035   0.03403   0.11027
H          H       0.12628   0.78149   0.42879   0.11213
H          H       0.88320   0.77984   0.06197   0.11338
H          H       0.74871   0.34566   0.18366   0.11412
H          H       0.27058   0.34413   0.37487   0.11234
H          H       0.24117   0.84828   0.13430   0.11479
H          H       0.76291   0.84562   0.35148   0.11368
H          H       0.67094   0.43090   0.16756   0.11104
H          H       0.35590   0.42647   0.39577   0.11245
H          H       0.15593   0.93051   0.11587   0.11488
H          H       0.84456   0.92947   0.36967   0.11184
H          H       0.23680   0.73498   0.38280   0.06903
H          H       0.77209   0.73068   0.10973   0.07084
H          H       0.70165   0.21936   0.36113   0.06868
H          H       0.25552   0.23899   0.09749   0.06988
H          H       0.35524   0.50023   0.72259   0.10929
H          H       0.64299   0.50196   0.76883   0.11187
H          H       0.85501   0.00133   0.73078   0.10923
H          H       0.14280   0.00018   0.77444   0.11112
H          H       0.65270   0.57147   0.61724   0.11146
H          H       0.34675   0.57107   0.88466   0.11086
H          H       0.15005   0.06976   0.61797   0.11154
H          H       0.84246   0.07136   0.88119   0.11061
H          H       0.73814   0.65169   0.63043   0.11748
H          H       0.25947   0.65039   0.87201   0.11766
H          H       0.23338   0.15014   0.62074   0.11762
H          H       0.75829   0.15227   0.86814   0.11339
H          H       0.62159   0.72589   0.91533   0.12050
H          H       0.36797   0.72292   0.57564   0.11822
H          H       0.12507   0.22561   0.91498   0.11976
H          H       0.88016   0.22632   0.59237   0.12333
H          H       0.53685   0.64412   0.90505   0.10782
H          H       0.45505   0.64241   0.58618   0.10798
H          H       0.04264   0.14320   0.91553   0.10893
H          H       0.96301   0.14387   0.60099   0.10844
H          H       0.55305   0.37077   0.94332   0.10654
H          H       0.47198   0.35882   0.59547   0.10617
H          H       0.03942   0.86489   0.92488   0.10484
H          H       0.95612   0.86464   0.57325   0.10609
H          H       0.64042   0.28997   0.97180   0.10904
H          H       0.38902   0.27625   0.57077   0.11334
H          H       0.12488   0.78306   0.95160   0.11188
H          H       0.86847   0.78400   0.54456   0.11192
H          H       0.72766   0.33875   0.62726   0.11145
H          H       0.25700   0.34463   0.84003   0.11296
H          H       0.22881   0.83943   0.63238   0.11169
H          H       0.76245   0.84353   0.85949   0.11317
H          H       0.64339   0.42176   0.60308   0.11005
H          H       0.33835   0.42855   0.86077   0.11149
H          H       0.14671   0.92347   0.61126   0.11367
H          H       0.84721   0.92620   0.88272   0.11252
H          H       0.23460   0.73360   0.90096   0.07076
H          H       0.75918   0.73465   0.59592   0.06959
H          H       0.74094   0.23613   0.90735   0.06875
H          H       0.28165   0.22533   0.61681   0.06867
C          C       0.54511   0.55222   0.26557   0.02708
C          C       0.46158   0.55332   0.24758   0.02914
C          C       0.04285   0.05304   0.25375   0.02923
C          C       0.96017   0.05244   0.24490   0.02767
C          C       0.42175   0.50338   0.24014  -0.18248
C          C       0.58291   0.50146   0.27629  -0.18131
C          C       0.92191   0.00206   0.23950  -0.18099
C          C       0.08145   0.00279   0.25643  -0.18204
C          C       0.45937   0.45285   0.24762   0.02551
C          C       0.54285   0.45147   0.26719   0.02037
C          C       0.96042   0.95194   0.24123   0.02195
C          C       0.04316   0.95238   0.25097   0.02252
C          C       0.59464   0.60171   0.27361   0.05402
C          C       0.41365   0.60361   0.23487   0.05354
C          C       0.09076   0.10329   0.26305   0.05225
C          C       0.91111   0.10189   0.23986   0.05805
C          C       0.58904   0.40041   0.28020   0.06845
C          C       0.40845   0.40377   0.23102   0.07452
C          C       0.09203   0.90261   0.26123   0.07125
C          C       0.91205   0.90185   0.22851   0.07021
C          C       0.65471   0.60351   0.20176  -0.12934
C          C       0.35143   0.60721   0.30171  -0.12797
C          C       0.15094   0.10681   0.19184  -0.12806
C          C       0.85878   0.10591   0.32622  -0.13117
C          C       0.70208   0.64930   0.20486  -0.17356
C          C       0.30488   0.65356   0.29314  -0.17542
C          C       0.19757   0.15310   0.19826  -0.17646
C          C       0.81248   0.15183   0.32722  -0.16885
C          C       0.69044   0.69569   0.27980   0.19638
C          C       0.31983   0.69895   0.21852   0.19654
C          C       0.18525   0.19834   0.27633   0.19743
C          C       0.81659   0.19585   0.24049   0.19335
C          C       0.63199   0.69333   0.35494  -0.16104
C          C       0.38016   0.69480   0.14781  -0.16058
C          C       0.12701   0.19429   0.35152  -0.15953
C          C       0.86822   0.19149   0.15279  -0.15516
C          C       0.58494   0.64744   0.35165  -0.11839
C          C       0.42589   0.64809   0.15535  -0.11891
C          C       0.08045   0.14796   0.34428  -0.12019
C          C       0.91436   0.14543   0.15201  -0.12284
C          C       0.56978   0.35474   0.34923  -0.12893
C          C       0.40885   0.36480   0.12950  -0.13530
C          C       0.08386   0.85962   0.34804  -0.13085
C          C       0.92197   0.85883   0.14233  -0.12950
C          C       0.61341   0.30701   0.35766  -0.12190
C          C       0.35950   0.31954   0.11546  -0.12078
C          C       0.13226   0.81411   0.35957  -0.12028
C          C       0.87543   0.81230   0.13093  -0.12185
C          C       0.67794   0.30295   0.29680   0.04916
C          C       0.31020   0.31107   0.20541   0.04683
C          C       0.18913   0.80942   0.28193   0.04651
C          C       0.81826   0.80671   0.20776   0.04880
C          C       0.69889   0.34892   0.23077  -0.10639
C          C       0.30897   0.35048   0.30592  -0.10412
C          C       0.19761   0.85225   0.19493  -0.10768
C          C       0.80726   0.84998   0.29257  -0.10813
C          C       0.65529   0.39647   0.22283  -0.13699
C          C       0.35657   0.39637   0.31707  -0.14483
C          C       0.15010   0.89809   0.18559  -0.14368
C          C       0.85294   0.89676   0.30189  -0.14018
C          C       0.23707   0.76036   0.29364   0.07547
C          C       0.77220   0.75662   0.19851   0.07687
C          C       0.72028   0.25166   0.30079   0.07360
C          C       0.26196   0.26189   0.19312   0.07644
C          C       0.53984   0.55167   0.75156   0.02826
C          C       0.45719   0.55114   0.74343   0.02869
C          C       0.04085   0.05095   0.75921   0.02900
C          C       0.95816   0.05141   0.75105   0.02634
C          C       0.41930   0.50054   0.73786  -0.18271
C          C       0.57908   0.50159   0.75610  -0.18202
C          C       0.91900   0.00122   0.74423  -0.18092
C          C       0.07887   0.00053   0.76156  -0.18352
C          C       0.45856   0.45050   0.74234   0.01929
C          C       0.54144   0.45122   0.75425   0.02513
C          C       0.95703   0.95094   0.74537   0.02249
C          C       0.03968   0.95053   0.75564   0.02233
C          C       0.58804   0.60165   0.75949   0.05567
C          C       0.40780   0.60063   0.73682   0.05450
C          C       0.08989   0.10043   0.76581   0.05538
C          C       0.91017   0.10152   0.74389   0.05084
C          C       0.59135   0.40172   0.77031   0.07464
C          C       0.41150   0.39986   0.73018   0.07157
C          C       0.08696   0.89998   0.76633   0.06904
C          C       0.90819   0.90105   0.73067   0.07031
C          C       0.64637   0.60496   0.68433  -0.13228
C          C       0.35120   0.60407   0.81560  -0.13126
C          C       0.14556   0.10353   0.68535  -0.13109
C          C       0.85065   0.10501   0.81656  -0.13063
C          C       0.69388   0.65076   0.69018  -0.17576
C          C       0.30251   0.64930   0.80983  -0.17549
C          C       0.19224   0.14939   0.68630  -0.17321
C          C       0.80369   0.15108   0.81074  -0.17550
C          C       0.68418   0.69569   0.77134   0.19763
C          C       0.30920   0.69340   0.72487   0.19925
C          C       0.18468   0.19454   0.76828   0.19517
C          C       0.81523   0.19613   0.73225   0.19646
C          C       0.62757   0.69178   0.84994  -0.16092
C          C       0.36445   0.68946   0.64380  -0.16187
C          C       0.13008   0.19096   0.85072  -0.15765
C          C       0.87303   0.19215   0.65619  -0.15751
C          C       0.58004   0.64597   0.84335  -0.12307
C          C       0.41313   0.64430   0.65025  -0.12278
C          C       0.08373   0.14492   0.84995  -0.12143
C          C       0.91958   0.14596   0.66212  -0.12112
C          C       0.59085   0.36379   0.87357  -0.13434
C          C       0.42524   0.35587   0.64968  -0.13188
C          C       0.08068   0.85935   0.86048  -0.12869
C          C       0.91395   0.86014   0.63626  -0.12930
C          C       0.63966   0.31829   0.88912  -0.12165
C          C       0.37886   0.30922   0.63656  -0.12344
C          C       0.12828   0.81329   0.87493  -0.12187
C          C       0.86514   0.81463   0.62085  -0.12328
C          C       0.68851   0.30851   0.79905   0.04779
C          C       0.31827   0.30415   0.70647   0.04843
C          C       0.18155   0.80542   0.79164   0.04832
C          C       0.81089   0.80774   0.70273   0.04841
C          C       0.68956   0.34660   0.69615  -0.10580
C          C       0.30381   0.34829   0.78607  -0.10744
C          C       0.18763   0.84580   0.69658  -0.10946
C          C       0.80465   0.84877   0.79678  -0.10851
C          C       0.64251   0.39275   0.68348  -0.14169
C          C       0.34921   0.39521   0.79673  -0.14017
C          C       0.14177   0.89253   0.68538  -0.14368
C          C       0.85188   0.89484   0.80906  -0.14289
C          C       0.22946   0.75613   0.80552   0.07748
C          C       0.76331   0.75828   0.68987   0.07656
C          C       0.73641   0.25926   0.81294   0.07580
C          C       0.27323   0.25363   0.69646   0.07543
N          N       0.77502   0.24505   0.23516  -0.30775
N          N       0.22887   0.24685   0.28876  -0.30114
N          N       0.27712   0.74789   0.20529  -0.30542
N          N       0.73377   0.74436   0.28922  -0.30630
N          N       0.77130   0.24439   0.71932  -0.30096
N          N       0.22751   0.24345   0.77735  -0.31097
N          N       0.26388   0.74118   0.71130  -0.30505
N          N       0.72813   0.74409   0.78347  -0.30609

