data_crystal

_audit_creation_method 'AiiDA-DDEC plugin'

_cell_length_a        17.18903
_cell_length_b        24.77701
_cell_length_c        11.28708

_cell_angle_alpha     90.29331
_cell_angle_beta     117.74235
_cell_angle_gamma     90.02845

_symmetry_space_group_name_Hall 'P 1'
_symmetry_space_group_name_H-M  'P 1'

loop_
_symmetry_equiv_pos_as_xyz
 'x,y,z'

loop_
_atom_site_label
_atom_site_type_symbol
_atom_site_fract_x
_atom_site_fract_y
_atom_site_fract_z
_atom_site_charge
H          H       0.64227   0.56878   0.15205   0.11161
H          H       0.63744   0.43247   0.13669   0.11089
H          H       0.14563   0.06904   0.14875   0.11182
H          H       0.14823   0.93154   0.15560   0.11252
H          H       0.72744   0.64957   0.16018   0.11753
H          H       0.72143   0.35158   0.14388   0.11695
H          H       0.23501   0.14912   0.16893   0.11481
H          H       0.23623   0.85020   0.17687   0.11584
H          H       0.63390   0.72944   0.40871   0.11611
H          H       0.64228   0.27717   0.41487   0.11600
H          H       0.13132   0.22815   0.40577   0.12275
H          H       0.13310   0.77571   0.41806   0.12104
H          H       0.55118   0.64683   0.40602   0.10841
H          H       0.55921   0.35960   0.41078   0.10771
H          H       0.04552   0.14605   0.39256   0.10687
H          H       0.04970   0.85924   0.40538   0.10742
H          H       0.42219   0.63582   0.08829   0.10755
H          H       0.42206   0.36596   0.07751   0.10759
H          H       0.92174   0.13594   0.07401   0.10680
H          H       0.93017   0.86262   0.08698   0.10788
H          H       0.33163   0.71663   0.06671   0.10889
H          H       0.33306   0.28426   0.05574   0.10883
H          H       0.83373   0.21767   0.05211   0.10686
H          H       0.84262   0.78027   0.06617   0.10877
H          H       0.27793   0.65675   0.37855   0.11063
H          H       0.28716   0.34066   0.37894   0.10886
H          H       0.77618   0.15935   0.36150   0.10988
H          H       0.77130   0.84450   0.35652   0.11068
H          H       0.36587   0.57420   0.39614   0.11072
H          H       0.37192   0.42462   0.39517   0.11053
H          H       0.85926   0.07537   0.37674   0.11055
H          H       0.85696   0.92814   0.37488   0.11132
H          H       0.74932   0.27277   0.12074   0.06797
H          H       0.75155   0.72774   0.12789   0.06732
H          H       0.23860   0.76755   0.12847   0.06649
H          H       0.24736   0.22994   0.12549   0.06594
H          H       0.34718   0.49973   0.23487   0.11529
H          H       0.84340   0.00026   0.21981   0.11423
H          H       0.64808   0.50235   0.28942   0.11087
H          H       0.14705   0.00158   0.28713   0.10972
H          H       0.63577   0.56898   0.64366   0.11173
H          H       0.64441   0.43068   0.65331   0.11000
H          H       0.11055   0.07452   0.60207   0.10750
H          H       0.13250   0.92931   0.62991   0.11153
H          H       0.72295   0.64953   0.65752   0.11704
H          H       0.73192   0.35000   0.67154   0.11514
H          H       0.19157   0.15661   0.60842   0.10770
H          H       0.21919   0.84884   0.64574   0.11570
H          H       0.64011   0.72409   0.92544   0.11871
H          H       0.63072   0.27348   0.91305   0.12085
H          H       0.13795   0.22263   0.91649   0.11336
H          H       0.13592   0.77668   0.91438   0.11681
H          H       0.55738   0.64136   0.91919   0.10862
H          H       0.54908   0.35676   0.90587   0.10840
H          H       0.05680   0.13891   0.91153   0.10847
H          H       0.05429   0.86032   0.90798   0.10805
H          H       0.43267   0.63679   0.59902   0.10657
H          H       0.43398   0.36048   0.59599   0.10737
H          H       0.92206   0.13590   0.58536   0.10590
H          H       0.91837   0.86309   0.57803   0.10711
H          H       0.34703   0.71954   0.57815   0.10939
H          H       0.34888   0.27715   0.57559   0.11019
H          H       0.83525   0.21793   0.56627   0.10987
H          H       0.82871   0.78212   0.55708   0.10765
H          H       0.27077   0.65696   0.86391   0.11063
H          H       0.26566   0.34247   0.85164   0.11099
H          H       0.76674   0.15461   0.86011   0.11174
H          H       0.78214   0.84107   0.87820   0.10884
H          H       0.35530   0.57314   0.88299   0.11323
H          H       0.35274   0.42612   0.87446   0.11035
H          H       0.85171   0.07139   0.87609   0.11344
H          H       0.86914   0.92324   0.89531   0.11191
H          H       0.74176   0.26976   0.62682   0.07033
H          H       0.73673   0.73049   0.62199   0.06608
H          H       0.25265   0.77168   0.63155   0.06739
H          H       0.26299   0.22260   0.64066   0.06917
H          H       0.34429   0.49911   0.73363   0.11345
H          H       0.84258   0.99715   0.73412   0.11464
H          H       0.64632   0.49996   0.79282   0.11054
H          H       0.13848   0.00185   0.76821   0.11333
C          C       0.53990   0.55160   0.26880   0.02577
C          C       0.54085   0.45161   0.26488   0.02653
C          C       0.03765   0.05123   0.25836   0.02652
C          C       0.03940   0.95103   0.26243   0.02639
C          C       0.45392   0.55063   0.25683   0.02163
C          C       0.45485   0.45084   0.25237   0.02128
C          C       0.95074   0.05072   0.24282   0.02084
C          C       0.95232   0.95080   0.24618   0.02055
C          C       0.58945   0.60162   0.27707   0.05566
C          C       0.59104   0.40213   0.27187   0.05827
C          C       0.08776   0.10123   0.26798   0.05391
C          C       0.09088   0.90131   0.27662   0.05321
C          C       0.40168   0.59976   0.24523   0.07471
C          C       0.40430   0.40071   0.23924   0.07689
C          C       0.89855   0.10013   0.22878   0.07493
C          C       0.90109   0.90102   0.23373   0.07507
C          C       0.64108   0.60375   0.20998  -0.12966
C          C       0.63899   0.39871   0.19923  -0.12974
C          C       0.14270   0.10359   0.20647  -0.12973
C          C       0.14521   0.89763   0.21430  -0.12974
C          C       0.68844   0.64975   0.21327  -0.17481
C          C       0.68624   0.35262   0.20277  -0.17468
C          C       0.19225   0.14935   0.21585  -0.17477
C          C       0.19385   0.85137   0.22439  -0.17584
C          C       0.68516   0.69624   0.28341   0.20155
C          C       0.68681   0.30760   0.27922   0.20167
C          C       0.18728   0.19560   0.28535   0.20200
C          C       0.18805   0.80607   0.29511   0.20157
C          C       0.63565   0.69367   0.35365  -0.16420
C          C       0.64093   0.31169   0.35477  -0.16459
C          C       0.13409   0.19297   0.34969  -0.16721
C          C       0.13627   0.81035   0.36152  -0.16831
C          C       0.58879   0.64744   0.35082  -0.12265
C          C       0.59388   0.35782   0.35122  -0.12571
C          C       0.08533   0.14688   0.34092  -0.12102
C          C       0.08889   0.85698   0.35278  -0.12146
C          C       0.39107   0.64036   0.15234  -0.13002
C          C       0.39277   0.36060   0.14377  -0.13111
C          C       0.89012   0.14080   0.13721  -0.13026
C          C       0.89597   0.85876   0.14674  -0.13009
C          C       0.34078   0.68592   0.14097  -0.12066
C          C       0.34352   0.31439   0.13257  -0.11981
C          C       0.84163   0.18721   0.12622  -0.11968
C          C       0.84750   0.81228   0.13595  -0.11993
C          C       0.30176   0.69292   0.22549   0.04826
C          C       0.30681   0.30618   0.21967   0.04827
C          C       0.80240   0.19519   0.21010   0.05079
C          C       0.80396   0.80623   0.21429   0.04904
C          C       0.31024   0.65175   0.31617  -0.10475
C          C       0.31684   0.34679   0.31346  -0.10370
C          C       0.80824   0.15379   0.29889  -0.10676
C          C       0.80679   0.84902   0.29869  -0.10552
C          C       0.35904   0.60578   0.32519  -0.14299
C          C       0.36400   0.39345   0.32195  -0.14431
C          C       0.85474   0.10691   0.30694  -0.14472
C          C       0.85421   0.89565   0.30767  -0.14383
C          C       0.75758   0.24595   0.20307   0.07762
C          C       0.75829   0.75589   0.20781   0.07826
C          C       0.25415   0.74264   0.21701   0.08035
C          C       0.25932   0.25632   0.21104   0.07824
C          C       0.41452   0.50032   0.25008  -0.18243
C          C       0.91134   0.00060   0.23795  -0.18243
C          C       0.58059   0.50192   0.27347  -0.18611
C          C       0.07894   0.00128   0.26827  -0.18611
C          C       0.53826   0.54947   0.76918   0.02809
C          C       0.53808   0.44945   0.76672   0.02635
C          C       0.03071   0.04986   0.75225   0.02690
C          C       0.03466   0.95016   0.75601   0.02643
C          C       0.45199   0.54923   0.75610   0.02049
C          C       0.45145   0.44924   0.75254   0.01953
C          C       0.94637   0.04887   0.74598   0.02014
C          C       0.95002   0.94924   0.74860   0.02126
C          C       0.58883   0.59918   0.77874   0.05398
C          C       0.58888   0.39986   0.77687   0.05305
C          C       0.07855   0.10024   0.75753   0.05897
C          C       0.08564   0.90076   0.76617   0.05685
C          C       0.40104   0.59907   0.74324   0.07346
C          C       0.39993   0.39928   0.73707   0.07316
C          C       0.89473   0.09815   0.73403   0.07518
C          C       0.90017   0.89912   0.73809   0.07594
C          C       0.63741   0.60268   0.70712  -0.13119
C          C       0.64198   0.39669   0.71235  -0.12672
C          C       0.11806   0.10638   0.67356  -0.12812
C          C       0.13422   0.89639   0.69470  -0.12919
C          C       0.68593   0.64863   0.71366  -0.17596
C          C       0.69030   0.35056   0.72034  -0.17575
C          C       0.16382   0.15318   0.67707  -0.17087
C          C       0.18261   0.85033   0.70247  -0.17387
C          C       0.68632   0.69369   0.79081   0.20066
C          C       0.68484   0.30477   0.78980   0.20155
C          C       0.17195   0.19590   0.76516   0.20014
C          C       0.18285   0.80599   0.78059   0.19955
C          C       0.63949   0.68963   0.86495  -0.16703
C          C       0.63390   0.30844   0.85755  -0.16829
C          C       0.13249   0.18955   0.84924  -0.15754
C          C       0.13587   0.81092   0.85438  -0.16211
C          C       0.59222   0.64333   0.85991  -0.12293
C          C       0.58743   0.35506   0.85195  -0.12112
C          C       0.08696   0.14265   0.84596  -0.12679
C          C       0.08880   0.85738   0.84826  -0.12508
C          C       0.39757   0.64102   0.65743  -0.12887
C          C       0.39767   0.35661   0.65270  -0.12846
C          C       0.88854   0.13991   0.64612  -0.12868
C          C       0.88832   0.85859   0.64345  -0.12983
C          C       0.34983   0.68772   0.64635  -0.12052
C          C       0.35046   0.30961   0.64228  -0.12024
C          C       0.84014   0.18621   0.63599  -0.12020
C          C       0.83853   0.81272   0.63263  -0.11953
C          C       0.30486   0.69435   0.72256   0.05005
C          C       0.30342   0.30380   0.71562   0.04759
C          C       0.79792   0.19266   0.71623   0.04920
C          C       0.80098   0.80540   0.71889   0.04932
C          C       0.30653   0.65203   0.80651  -0.10697
C          C       0.30316   0.34703   0.79685  -0.10488
C          C       0.80112   0.15014   0.80061  -0.10674
C          C       0.81181   0.84622   0.81247  -0.10657
C          C       0.35354   0.60518   0.81612  -0.14512
C          C       0.35108   0.39367   0.80794  -0.14315
C          C       0.84847   0.10364   0.80880  -0.14393
C          C       0.86028   0.89228   0.82132  -0.14682
C          C       0.75265   0.24299   0.71053   0.07605
C          C       0.75309   0.75579   0.71085   0.08028
C          C       0.25865   0.74478   0.71255   0.07881
C          C       0.25777   0.25324   0.70745   0.07718
C          C       0.41182   0.49915   0.74965  -0.17989
C          C       0.90891   0.99847   0.74528  -0.18102
C          C       0.57844   0.49957   0.77499  -0.18558
C          C       0.07219   0.00061   0.75725  -0.18401
N          N       0.23189   0.75693   0.30752  -0.29941
N          N       0.23251   0.24421   0.29753  -0.29863
N          N       0.72962   0.25831   0.28825  -0.30289
N          N       0.72836   0.74530   0.29137  -0.30107
N          N       0.22687   0.75683   0.79323  -0.30432
N          N       0.21560   0.24514   0.77569  -0.30568
N          N       0.72727   0.25542   0.79869  -0.29834
N          N       0.73146   0.74236   0.80235  -0.29889

