data_crystal

_audit_creation_method 'AiiDA-DDEC plugin'

_cell_length_a        17.28942
_cell_length_b        24.70517
_cell_length_c        10.18883

_cell_angle_alpha     89.87273
_cell_angle_beta     105.04842
_cell_angle_gamma     90.02807

_symmetry_space_group_name_Hall 'P 1'
_symmetry_space_group_name_H-M  'P 1'

loop_
_symmetry_equiv_pos_as_xyz
 'x,y,z'

loop_
_atom_site_label
_atom_site_type_symbol
_atom_site_fract_x
_atom_site_fract_y
_atom_site_fract_z
_atom_site_charge
H          H       0.64855   0.57908   0.11649   0.11441
H          H       0.34710   0.57175   0.37972   0.11096
H          H       0.33403   0.42934   0.34179   0.11187
H          H       0.65417   0.42681   0.11952   0.11598
H          H       0.73220   0.66202   0.13910   0.11095
H          H       0.26365   0.65488   0.36819   0.11523
H          H       0.25232   0.34552   0.31653   0.11325
H          H       0.73390   0.34231   0.13503   0.11299
H          H       0.63299   0.71800   0.46033   0.11156
H          H       0.37566   0.72331   0.07524   0.11047
H          H       0.39377   0.27639   0.06897   0.11413
H          H       0.62756   0.28237   0.44475   0.11283
H          H       0.54739   0.63628   0.43473   0.10573
H          H       0.46134   0.64224   0.09167   0.10734
H          H       0.47536   0.35924   0.09395   0.10639
H          H       0.54640   0.36556   0.42678   0.10626
H          H       0.72847   0.22900   0.38314   0.06925
H          H       0.28787   0.22389   0.11456   0.06939
H          H       0.26549   0.76952   0.12324   0.06665
H          H       0.73886   0.77007   0.40191   0.07098
H          H       0.14528   0.07244   0.09960   0.11232
H          H       0.83398   0.06691   0.34649   0.11109
H          H       0.84305   0.93318   0.36796   0.10926
H          H       0.16306   0.93136   0.13971   0.11256
H          H       0.22564   0.15360   0.09728   0.11320
H          H       0.74861   0.14673   0.33509   0.11339
H          H       0.75925   0.85197   0.36197   0.11380
H          H       0.24784   0.85043   0.15993   0.11378
H          H       0.12899   0.22468   0.40690   0.11793
H          H       0.88404   0.23008   0.09767   0.12420
H          H       0.87715   0.77564   0.08783   0.12117
H          H       0.12234   0.77796   0.42899   0.12343
H          H       0.04943   0.14163   0.41175   0.11101
H          H       0.96819   0.14836   0.10315   0.10922
H          H       0.96084   0.85765   0.09213   0.10837
H          H       0.03670   0.86007   0.40903   0.10726
H          H       0.35531   0.50048   0.21478   0.11103
H          H       0.64739   0.50248   0.28049   0.11421
H          H       0.85423   0.00105   0.20937   0.10657
H          H       0.14553   0.00136   0.27421   0.10806
H          H       0.65733   0.56980   0.62769   0.11212
H          H       0.34991   0.57270   0.88732   0.11149
H          H       0.35557   0.42076   0.89570   0.11054
H          H       0.65384   0.42420   0.62568   0.11363
H          H       0.74309   0.65190   0.64908   0.11392
H          H       0.27121   0.65778   0.87926   0.11315
H          H       0.26963   0.33894   0.87218   0.11206
H          H       0.73625   0.34064   0.64842   0.11453
H          H       0.62888   0.71741   0.94177   0.11232
H          H       0.38409   0.72365   0.58507   0.11139
H          H       0.35330   0.28811   0.52960   0.11045
H          H       0.61571   0.27726   0.93573   0.11066
H          H       0.54259   0.63607   0.91917   0.10609
H          H       0.46193   0.63944   0.59153   0.10717
H          H       0.44294   0.36778   0.55819   0.10671
H          H       0.53325   0.36012   0.91203   0.10519
H          H       0.71843   0.22460   0.88264   0.06860
H          H       0.25179   0.23568   0.59212   0.06895
H          H       0.29342   0.77765   0.65837   0.06685
H          H       0.73455   0.76727   0.88811   0.06899
H          H       0.15735   0.06868   0.62656   0.11163
H          H       0.86208   0.07351   0.90372   0.10764
H          H       0.83941   0.92796   0.86553   0.11131
H          H       0.14328   0.92317   0.60882   0.10875
H          H       0.24047   0.15082   0.63971   0.11252
H          H       0.78099   0.15518   0.90293   0.11131
H          H       0.75827   0.84573   0.85498   0.11426
H          H       0.22652   0.84252   0.62263   0.11337
H          H       0.11128   0.22588   0.89799   0.12278
H          H       0.85577   0.21670   0.55982   0.11602
H          H       0.88637   0.77144   0.59251   0.12145
H          H       0.13548   0.78149   0.94998   0.11755
H          H       0.02734   0.14358   0.88501   0.10788
H          H       0.93652   0.13333   0.55921   0.10869
H          H       0.96603   0.85546   0.59862   0.10843
H          H       0.05018   0.86303   0.93385   0.10816
H          H       0.35449   0.50054   0.73006   0.11460
H          H       0.64447   0.49685   0.77461   0.11207
H          H       0.85254   0.99745   0.72190   0.10931
H          H       0.14278  -0.00018   0.76934   0.10836
C          C       0.54279   0.55176   0.25894   0.02766
C          C       0.45899   0.55117   0.24451   0.02385
C          C       0.45989   0.45094   0.23872   0.02140
C          C       0.54406   0.45174   0.25626   0.02619
C          C       0.59136   0.60192   0.27331   0.06911
C          C       0.41034   0.60105   0.23675   0.06869
C          C       0.41176   0.40056   0.22130   0.06806
C          C       0.59347   0.40199   0.27052   0.06819
C          C       0.64535   0.60939   0.19229  -0.14668
C          C       0.35311   0.60508   0.31294  -0.14056
C          C       0.34694   0.39602   0.28111  -0.14021
C          C       0.64859   0.39528   0.19131  -0.14429
C          C       0.69213   0.65570   0.20419  -0.10445
C          C       0.30671   0.65141   0.30750  -0.10576
C          C       0.30126   0.34917   0.26818  -0.10478
C          C       0.69311   0.34804   0.19908  -0.10350
C          C       0.68756   0.69596   0.29947   0.04892
C          C       0.31494   0.69502   0.22297   0.05150
C          C       0.31848   0.30474   0.19411   0.05158
C          C       0.68495   0.30612   0.28848   0.04874
C          C       0.63546   0.68792   0.38348  -0.12141
C          C       0.37045   0.69050   0.14399  -0.12201
C          C       0.38131   0.30967   0.13038  -0.12466
C          C       0.63257   0.31371   0.37203  -0.12343
C          C       0.58735   0.64196   0.36920  -0.13011
C          C       0.41836   0.64475   0.15261  -0.12880
C          C       0.42719   0.35658   0.14414  -0.13008
C          C       0.58706   0.36067   0.36224  -0.12895
C          C       0.72960   0.25556   0.29674   0.07234
C          C       0.27456   0.25384   0.18536   0.07339
C          C       0.26793   0.74463   0.21398   0.07567
C          C       0.73506   0.74547   0.31059   0.07599
C          C       0.04175   0.05132   0.24976   0.02669
C          C       0.95789   0.05156   0.23620   0.02398
C          C       0.95828   0.95101   0.23968   0.02642
C          C       0.04233   0.95099   0.25525   0.02617
C          C       0.09092   0.10084   0.25529   0.05903
C          C       0.90874   0.10126   0.22737   0.05377
C          C       0.90926   0.90132   0.23261   0.05591
C          C       0.09216   0.90148   0.27044   0.05292
C          C       0.14284   0.10524   0.16962  -0.13206
C          C       0.84492   0.10227   0.29000  -0.13034
C          C       0.85055   0.89871   0.30600  -0.13076
C          C       0.15388   0.89788   0.20369  -0.13010
C          C       0.18833   0.15157   0.16816  -0.16901
C          C       0.79701   0.14782   0.28504  -0.17549
C          C       0.80371   0.85272   0.30358  -0.17267
C          C       0.20142   0.85188   0.21422  -0.17669
C          C       0.18347   0.19577   0.25296   0.19476
C          C       0.81203   0.19514   0.21816   0.19598
C          C       0.81427   0.80710   0.22721   0.19703
C          C       0.18867   0.80706   0.29192   0.19576
C          C       0.13267   0.19085   0.34058  -0.15810
C          C       0.87419   0.19390   0.15223  -0.15956
C          C       0.87085   0.81034   0.14978  -0.15905
C          C       0.12966   0.81157   0.36412  -0.15748
C          C       0.08772   0.14430   0.34253  -0.12388
C          C       0.92143   0.14808   0.15660  -0.11785
C          C       0.91771   0.85632   0.15297  -0.12163
C          C       0.08208   0.85762   0.35278  -0.12032
C          C       0.42019   0.50082   0.23385  -0.17946
C          C       0.58262   0.50202   0.26370  -0.18062
C          C       0.91915   0.00121   0.22929  -0.18539
C          C       0.08081   0.00121   0.25826  -0.18353
C          C       0.54257   0.54832   0.75755   0.02357
C          C       0.45918   0.54941   0.74800   0.02461
C          C       0.45619   0.44936   0.74356   0.02662
C          C       0.53947   0.44830   0.75380   0.02286
C          C       0.59322   0.59735   0.77121   0.06718
C          C       0.41213   0.59997   0.74066   0.07011
C          C       0.40581   0.40005   0.72903   0.07194
C          C       0.58684   0.39787   0.76607   0.06855
C          C       0.65157   0.60195   0.69743  -0.14114
C          C       0.35647   0.60551   0.81952  -0.14113
C          C       0.35504   0.39176   0.81528  -0.14244
C          C       0.64593   0.39208   0.69429  -0.14288
C          C       0.69934   0.64778   0.70826  -0.10474
C          C       0.31281   0.65292   0.81634  -0.10248
C          C       0.30699   0.34599   0.80292  -0.10609
C          C       0.69192   0.34542   0.70614  -0.10723
C          C       0.69066   0.69054   0.79441   0.05001
C          C       0.32327   0.69656   0.73361   0.04734
C          C       0.30650   0.30755   0.70101   0.04986
C          C       0.68104   0.30287   0.79177   0.05043
C          C       0.63441   0.68527   0.87179  -0.12359
C          C       0.37728   0.69066   0.65224  -0.12251
C          C       0.35513   0.31663   0.61169  -0.12269
C          C       0.62349   0.30912   0.86629  -0.12188
C          C       0.58610   0.63960   0.85950  -0.12872
C          C       0.42083   0.64321   0.65557  -0.13080
C          C       0.40510   0.36166   0.62708  -0.13321
C          C       0.57690   0.35565   0.85294  -0.13047
C          C       0.72609   0.25241   0.80255   0.07475
C          C       0.25781   0.25850   0.68699   0.07446
C          C       0.28046   0.74755   0.72937   0.07383
C          C       0.73682   0.74040   0.80331   0.07160
C          C       0.03805   0.04934   0.74744   0.02585
C          C       0.95475   0.04814   0.73844   0.02612
C          C       0.95717   0.94806   0.74372   0.02497
C          C       0.04075   0.94913   0.75617   0.02540
C          C       0.08513   0.09987   0.75334   0.05323
C          C       0.90486   0.09736   0.73125   0.06032
C          C       0.91004   0.89762   0.73545   0.05666
C          C       0.09104   0.89977   0.77095   0.06241
C          C       0.14685   0.10306   0.68634  -0.13225
C          C       0.85892   0.10423   0.82569  -0.13116
C          C       0.84958   0.89381   0.80481  -0.12975
C          C       0.14301   0.89289   0.68641  -0.13422
C          C       0.19323   0.14954   0.69233  -0.17608
C          C       0.81333   0.15063   0.82532  -0.16887
C          C       0.80423   0.84705   0.79976  -0.17635
C          C       0.19028   0.84691   0.69461  -0.17311
C          C       0.17974   0.19506   0.76655   0.19570
C          C       0.81212   0.19219   0.72979   0.19455
C          C       0.81835   0.80165   0.72568   0.19477
C          C       0.18827   0.80575   0.78975   0.19383
C          C       0.11968   0.19147   0.83674  -0.15827
C          C       0.85695   0.18468   0.63377  -0.15589
C          C       0.87700   0.80595   0.65266  -0.15760
C          C       0.13712   0.81298   0.87585  -0.15521
C          C       0.07300   0.14517   0.82928  -0.12040
C          C       0.90236   0.13820   0.63421  -0.12628
C          C       0.92193   0.85296   0.65741  -0.12096
C          C       0.08932   0.85891   0.86642  -0.12564
C          C       0.41886   0.49981   0.74232  -0.18001
C          C       0.57989   0.49782   0.75985  -0.17928
C          C       0.91709   0.99780   0.73618  -0.18391
C          C       0.07825  -0.00051   0.75597  -0.18314
N          N       0.77059   0.75869   0.21786  -0.30363
N          N       0.23165   0.75809   0.30533  -0.30395
N          N       0.22486   0.24514   0.25882  -0.30878
N          N       0.76910   0.24379   0.20876  -0.30168
N          N       0.77679   0.75227   0.71582  -0.30369
N          N       0.23101   0.75661   0.80300  -0.30737
N          N       0.22395   0.24336   0.78034  -0.29933
N          N       0.77021   0.24147   0.72099  -0.30810

