data_crystal

_audit_creation_method 'AiiDA-DDEC plugin'

_cell_length_a        17.65942
_cell_length_b        24.39944
_cell_length_c         9.52820

_cell_angle_alpha     76.30632
_cell_angle_beta     97.56659
_cell_angle_gamma     89.83940

_symmetry_space_group_name_Hall 'P 1'
_symmetry_space_group_name_H-M  'P 1'

loop_
_symmetry_equiv_pos_as_xyz
 'x,y,z'

loop_
_atom_site_label
_atom_site_type_symbol
_atom_site_fract_x
_atom_site_fract_y
_atom_site_fract_z
_atom_site_charge
H          H       0.10982   0.77678   0.21420   0.10788
H          H       0.89123   0.27239   0.27464   0.10774
H          H       0.42197   0.85210   0.15034   0.11071
H          H       0.59362   0.33493   0.39159   0.11226
H          H       0.50306   0.93257   0.18294   0.11063
H          H       0.50787   0.42000   0.35781   0.11390
H          H       0.35009   0.97753   0.45444   0.10902
H          H       0.61993   0.50536  -0.00296   0.11067
H          H       0.27076   0.89650   0.42566   0.10159
H          H       0.70801   0.42256   0.03539   0.10702
H          H       0.21932   0.93093   0.08449   0.10963
H          H       0.76687   0.41441   0.36542   0.10177
H          H       0.13703   0.01396   0.08337   0.12275
H          H       0.84958   0.49582   0.36454   0.12195
H          H       0.01414   0.90989   0.40355   0.11556
H          H       0.99699   0.42996   0.11404   0.11513
H          H       0.09630   0.82745   0.40570   0.10869
H          H       0.91379   0.34964   0.11272   0.11182
H          H       0.98962   0.99101   0.43840   0.06826
H          H       0.02924   0.51649   0.06807   0.07179
H          H       0.39060   0.76743   0.27373   0.10845
H          H       0.61148   0.26973   0.23442   0.10778
H          H       0.07876   0.69288   0.34123   0.10967
H          H       0.90991   0.20967   0.11653   0.11089
H          H       0.99745   0.61228   0.31237   0.11084
H          H       0.99623   0.12510   0.14637   0.11400
H          H       0.14817   0.56587   0.03893   0.10962
H          H       0.88290   0.03646   0.50228   0.11127
H          H       0.22889   0.64614   0.06706   0.10110
H          H       0.79428   0.11895   0.46662   0.10571
H          H       0.28358   0.61396   0.41094   0.10802
H          H       0.73356   0.12968   0.13423   0.09985
H          H       0.36761   0.53117   0.41780   0.12189
H          H       0.65127   0.04811   0.13620   0.12020
H          H       0.48664   0.63343   0.08836   0.11343
H          H       0.50909   0.11024   0.40227   0.11748
H          H       0.40326   0.71561   0.08131   0.10875
H          H       0.59139   0.19069   0.40139   0.10763
H          H       0.51292   0.55180   0.05913   0.06949
H          H       0.46620   0.02868   0.42566   0.06974
H          H       0.10814   0.77393   0.71338   0.10647
H          H       0.89022   0.27015   0.78437   0.10738
H          H       0.42023   0.84889   0.64961   0.11022
H          H       0.59774   0.33495   0.90585   0.11157
H          H       0.50435   0.92689   0.68257   0.11152
H          H       0.51326   0.42044   0.87370   0.11361
H          H       0.35226   0.97739   0.94815   0.11052
H          H       0.61360   0.50068   0.49214   0.11094
H          H       0.26865   0.89861   0.91690   0.10328
H          H       0.70029   0.41703   0.52904   0.10613
H          H       0.21543   0.92994   0.58352   0.10990
H          H       0.76204   0.41436   0.86349   0.10062
H          H       0.13149   0.01226   0.58250   0.12262
H          H       0.84308   0.49723   0.85808   0.12115
H          H       0.00611   0.90567   0.89320   0.11511
H          H       0.99600   0.42796   0.62385   0.11356
H          H       0.09066   0.82391   0.89648   0.11085
H          H       0.91491   0.34686   0.62668   0.10773
H          H       0.98549   0.98691   0.93737   0.06995
H          H       0.03208   0.51157   0.58110   0.07048
H          H       0.38845   0.76723   0.77523   0.10651
H          H       0.61045   0.26811   0.73508   0.10792
H          H       0.07792   0.69179   0.84147   0.10904
H          H       0.90327   0.20514   0.61287   0.11213
H          H       0.99538   0.61186   0.81303   0.11180
H          H       0.98671   0.11963   0.63879   0.11239
H          H       0.14769   0.56254   0.54560   0.11198
H          H       0.88301   0.03517   0.01250   0.11088
H          H       0.22889   0.64272   0.57158   0.10257
H          H       0.79795   0.11897   0.98254   0.10680
H          H       0.28160   0.61186   0.91115   0.11057
H          H       0.73967   0.12575   0.64878   0.10155
H          H       0.36616   0.52929   0.91820   0.12254
H          H       0.65878   0.04378   0.64442   0.12211
H          H       0.49031   0.63326   0.60040   0.11535
H          H       0.50103   0.11101   0.87287   0.11486
H          H       0.40615   0.71478   0.59100   0.10891
H          H       0.58282   0.19125   0.88165   0.10869
H          H       0.51330   0.55044   0.56547   0.07088
H          H       0.47517   0.02279   0.92915   0.07240
C          C       0.29180   0.82091   0.26197   0.02686
C          C       0.70812   0.32224   0.23736   0.02405
C          C       0.21071   0.82247   0.24824   0.02947
C          C       0.78889   0.32379   0.24481   0.03035
C          C       0.17197   0.77382   0.23193  -0.18163
C          C       0.82914   0.27238   0.26108  -0.18314
C          C       0.33959   0.86874   0.28429   0.06813
C          C       0.65738   0.37284   0.21623   0.07406
C          C       0.16387   0.87315   0.24612   0.05686
C          C       0.83408   0.37513   0.24028   0.05484
C          C       0.40696   0.87911   0.21880  -0.13764
C          C       0.59907   0.37224   0.30465  -0.14241
C          C       0.45198   0.92427   0.23553  -0.11683
C          C       0.55131   0.41940   0.28691  -0.10587
C          C       0.43196   0.96103   0.31932   0.04898
C          C       0.55944   0.46850   0.17794   0.04861
C          C       0.36573   0.95022   0.38708  -0.12206
C          C       0.61538   0.46843   0.08548  -0.11861
C          C       0.32093   0.90487   0.37048  -0.13110
C          C       0.66430   0.42172   0.10607  -0.13038
C          C       0.17491   0.92630   0.15527  -0.12457
C          C       0.81661   0.41775   0.30885  -0.12532
C          C       0.12942   0.97286   0.15451  -0.15891
C          C       0.86271   0.46378   0.30840  -0.15665
C          C       0.07182   0.96849   0.24581   0.19619
C          C       0.92845   0.46962   0.23805   0.20054
C          C       0.05931   0.91500   0.33436  -0.17476
C          C       0.94647   0.42719   0.16884  -0.17254
C          C       0.10491   0.86836   0.33424  -0.13071
C          C       0.90001   0.38122   0.16982  -0.12882
C          C       0.99064   0.02393   0.33745   0.07885
C          C       0.02095   0.53492   0.16004   0.07182
C          C       0.20866   0.72306   0.22832   0.02661
C          C       0.79454   0.22028   0.26892   0.02599
C          C       0.28973   0.72154   0.24173   0.02925
C          C       0.71380   0.21870   0.26194   0.02850
C          C       0.32844   0.77026   0.25753  -0.18133
C          C       0.67357   0.27005   0.24638  -0.18084
C          C       0.16078   0.67508   0.20784   0.06799
C          C       0.84534   0.16987   0.28830   0.07218
C          C       0.33694   0.67082   0.24473   0.05569
C          C       0.66874   0.16724   0.26650   0.05723
C          C       0.09355   0.66537   0.27377  -0.13595
C          C       0.90419   0.17151   0.20065  -0.14223
C          C       0.04829   0.62015   0.25899  -0.11573
C          C       0.95238   0.12469   0.21684  -0.10391
C          C       0.06766   0.58287   0.17614   0.05028
C          C       0.94408   0.07488   0.32351   0.04742
C          C       0.13340   0.59326   0.10680  -0.12402
C          C       0.88762   0.07396   0.41551  -0.11998
C          C       0.17884   0.63840   0.12259  -0.13070
C          C       0.83829   0.12037   0.39628  -0.12664
C          C       0.32740   0.61817   0.33912  -0.12276
C          C       0.68499   0.12552   0.19433  -0.12506
C          C       0.37400   0.57168   0.34308  -0.15988
C          C       0.63893   0.07947   0.19490  -0.15366
C          C       0.43103   0.57560   0.25078   0.19630
C          C       0.57424   0.07263   0.26848   0.19759
C          C       0.44181   0.62859   0.15818  -0.17073
C          C       0.55782   0.11394   0.34236  -0.17045
C          C       0.39536   0.67516   0.15552  -0.13090
C          C       0.60419   0.15999   0.34111  -0.12718
C          C       0.51286   0.51963   0.16177   0.07828
C          C       0.47817   0.00895   0.33788   0.07275
C          C       0.28913   0.82014   0.75940   0.02503
C          C       0.70698   0.32008   0.74258   0.02581
C          C       0.20803   0.82110   0.74537   0.02976
C          C       0.78774   0.32182   0.75193   0.02937
C          C       0.17033   0.77180   0.73105  -0.18115
C          C       0.82813   0.27036   0.76917  -0.18212
C          C       0.33760   0.86791   0.78040   0.06801
C          C       0.65604   0.37065   0.72101   0.07589
C          C       0.15998   0.87126   0.74277   0.05439
C          C       0.83218   0.37357   0.74668   0.05573
C          C       0.40582   0.87636   0.71734  -0.13583
C          C       0.60103   0.37138   0.81535  -0.14321
C          C       0.45285   0.92046   0.73435  -0.11499
C          C       0.55392   0.41886   0.79802  -0.10337
C          C       0.43415   0.95802   0.81686   0.04971
C          C       0.55932   0.46681   0.68410   0.04599
C          C       0.36705   0.94921   0.88240  -0.12543
C          C       0.61152   0.46511   0.58516  -0.11768
C          C       0.31990   0.90510   0.86459  -0.13179
C          C       0.65979   0.41796   0.60499  -0.13129
C          C       0.17075   0.92480   0.65361  -0.12243
C          C       0.81271   0.41750   0.80933  -0.12477
C          C       0.12418   0.97088   0.65263  -0.16075
C          C       0.85783   0.46419   0.80633  -0.15342
C          C       0.06558   0.96546   0.74189   0.19723
C          C       0.92487   0.46951   0.73979   0.19717
C          C       0.05268   0.91142   0.82722  -0.17562
C          C       0.94478   0.42578   0.67643  -0.16913
C          C       0.09952   0.86534   0.82760  -0.13005
C          C       0.89928   0.37928   0.67961  -0.12542
C          C       0.98503   0.02018   0.83698   0.08033
C          C       0.02004   0.53288   0.66568   0.07212
C          C       0.20768   0.72100   0.72963   0.02571
C          C       0.79363   0.21830   0.77592   0.02477
C          C       0.28876   0.71994   0.74398   0.02874
C          C       0.71285   0.21661   0.76553   0.02966
C          C       0.32634   0.76930   0.75785  -0.17902
C          C       0.67250   0.26799   0.74961  -0.18335
C          C       0.15995   0.67294   0.70965   0.06972
C          C       0.84427   0.16776   0.79540   0.07714
C          C       0.33692   0.66946   0.74905   0.05584
C          C       0.66820   0.16520   0.76618   0.05127
C          C       0.09227   0.66398   0.77444  -0.13523
C          C       0.89943   0.16791   0.70090  -0.14469
C          C       0.04653   0.61908   0.76027  -0.11501
C          C       0.94582   0.12037   0.71451  -0.10143
C          C       0.06631   0.58111   0.67954   0.05013
C          C       0.93937   0.07138   0.82482   0.04517
C          C       0.13257   0.59067   0.61137  -0.12647
C          C       0.88671   0.07199   0.92347  -0.11602
C          C       0.17829   0.63573   0.62591  -0.12971
C          C       0.83930   0.11926   0.90747  -0.13132
C          C       0.32633   0.61650   0.84124  -0.12544
C          C       0.68837   0.12221   0.70087  -0.12235
C          C       0.37330   0.57017   0.84575  -0.15997
C          C       0.64295   0.07602   0.69760  -0.15774
C          C       0.43197   0.57459   0.75689   0.19896
C          C       0.57479   0.07035   0.76044   0.20044
C          C       0.44435   0.62793   0.66767  -0.17634
C          C       0.55379   0.11339   0.82498  -0.17507
C          C       0.39717   0.67427   0.66385  -0.12856
C          C       0.59964   0.15930   0.82830  -0.12369
C          C       0.51325   0.51821   0.66772   0.07899
C          C       0.48222   0.00506   0.83548   0.07428
N          N       0.53035   0.02574   0.25579  -0.30412
N          N       0.47422   0.52588   0.26380  -0.30893
N          N       0.97217   0.51667   0.24893  -0.30132
N          N       0.02980   0.01845   0.23558  -0.30872
N          N       0.53115   0.02359   0.74662  -0.30123
N          N       0.47476   0.52482   0.77016  -0.31050
N          N       0.96774   0.51714   0.74855  -0.30430
N          N       0.02311   0.01496   0.73276  -0.30821

