data_crystal

_audit_creation_method 'AiiDA-DDEC plugin'

_cell_length_a        30.08674
_cell_length_b        30.07106
_cell_length_c         8.98068

_cell_angle_alpha     91.58434
_cell_angle_beta     88.17341
_cell_angle_gamma     120.05604

_symmetry_space_group_name_Hall 'P 1'
_symmetry_space_group_name_H-M  'P 1'

loop_
_symmetry_equiv_pos_as_xyz
 'x,y,z'

loop_
_atom_site_label
_atom_site_type_symbol
_atom_site_fract_x
_atom_site_fract_y
_atom_site_fract_z
_atom_site_charge
H          H       0.42292   0.00660   0.25615   0.10562
H          H       0.99453   0.41529   0.23773   0.10409
H          H       0.58610   0.57988   0.27335   0.10948
H          H       0.57810   0.99190   0.24204   0.10591
H          H       0.00663   0.58387   0.24553   0.10354
H          H       0.41796   0.42179   0.26282   0.10451
H          H       0.63255   0.05553   0.39716   0.10826
H          H       0.94201   0.57810   0.37806   0.10961
H          H       0.42770   0.36627   0.41343   0.10879
H          H       0.36766   0.94545   0.40713   0.10845
H          H       0.05658   0.42253   0.38212   0.11166
H          H       0.56371   0.63925   0.42840   0.10737
H          H       0.72230   0.12758   0.38647   0.12748
H          H       0.87012   0.59489   0.35429   0.12757
H          H       0.41398   0.27807   0.39306   0.12686
H          H       0.27795   0.87386   0.40238   0.12776
H          H       0.12911   0.40577   0.36564   0.12729
H          H       0.57032   0.72384   0.39089   0.12137
H          H       0.67795   0.20668   0.08607   0.10905
H          H       0.79420   0.46316   0.06338   0.11079
H          H       0.54162   0.33020   0.08366   0.10774
H          H       0.32352   0.78903   0.10427   0.10811
H          H       0.21176   0.53574   0.07965   0.10636
H          H       0.47346   0.66281   0.01000   0.11042
H          H       0.58860   0.13372   0.09322   0.09758
H          H       0.86750   0.44803   0.08268   0.09789
H          H       0.55405   0.41783   0.09968   0.09889
H          H       0.41326   0.86139   0.10556   0.09924
H          H       0.13820   0.55057   0.08930   0.09947
H          H       0.46558   0.57756   0.05256   0.09568
H          H       0.56638   0.13466   0.41531   0.10343
H          H       0.86231   0.43066   0.39117   0.10440
H          H       0.57372   0.43643   0.41639   0.10371
H          H       0.43871   0.86768   0.42318   0.10208
H          H       0.13624   0.56881   0.39803   0.10440
H          H       0.43184   0.57309   0.38702   0.10620
H          H       0.56452   0.21575   0.43362   0.10408
H          H       0.78308   0.34684   0.41023   0.10384
H          H       0.65798   0.44095   0.41690   0.10391
H          H       0.44538   0.78954   0.44751   0.10463
H          H       0.21588   0.65248   0.41823   0.10441
H          H       0.34839   0.56995   0.38719   0.10382
H          H       0.44091   0.15533   0.12307   0.11704
H          H       0.84935   0.27980   0.11386   0.11852
H          H       0.71881   0.56652   0.11001   0.11869
H          H       0.55972   0.84225   0.09402   0.11611
H          H       0.15197   0.72025   0.14190   0.11922
H          H       0.28480   0.43084   0.12302   0.11849
H          H       0.44325   0.07396   0.10479   0.11271
H          H       0.92879   0.36485   0.09228   0.11326
H          H       0.63399   0.56159   0.10986   0.11465
H          H       0.55522   0.92223   0.07858   0.11229
H          H       0.07326   0.63553   0.11503   0.11360
H          H       0.36883   0.43462   0.12085   0.11092
H          H       0.73009   0.26157   0.32676   0.05809
H          H       0.74125   0.47252   0.32951   0.05957
H          H       0.53543   0.27090   0.35265   0.06163
H          H       0.27013   0.73792   0.33770   0.05888
H          H       0.26498   0.53650   0.30377   0.05708
H          H       0.48758   0.74072   0.38683   0.06601
H          H       0.42338   0.00708   0.75583   0.10327
H          H       0.99268   0.41811   0.73632   0.10357
H          H       0.58112   0.57647   0.73308   0.10202
H          H       0.57899   0.99360   0.74725   0.10359
H          H       0.00558   0.58711   0.74348   0.10550
H          H       0.41313   0.41951   0.74814   0.10537
H          H       0.63569   0.05731   0.88876   0.11206
H          H       0.93944   0.57758   0.89359   0.11244
H          H       0.42088   0.36630   0.90274   0.10916
H          H       0.36740   0.94643   0.90301   0.11146
H          H       0.05377   0.42466   0.88296   0.11136
H          H       0.58003   0.63570   0.84925   0.10988
H          H       0.72492   0.12975   0.87002   0.12826
H          H       0.86684   0.59427   0.87886   0.12697
H          H       0.40510   0.27703   0.89579   0.12741
H          H       0.27757   0.87534   0.89265   0.12699
H          H       0.12501   0.40599   0.86202   0.12638
H          H       0.59661   0.72424   0.82988   0.12751
H          H       0.67517   0.20900   0.58795   0.10840
H          H       0.79380   0.47006   0.56280   0.10775
H          H       0.53507   0.32345   0.59843   0.10746
H          H       0.32450   0.79092   0.59744   0.10831
H          H       0.20863   0.53555   0.57548   0.10972
H          H       0.45570   0.66858   0.59582   0.10875
H          H       0.58677   0.13556   0.60085   0.09781
H          H       0.86758   0.45491   0.57336   0.09672
H          H       0.54877   0.41159   0.59805   0.09741
H          H       0.41391   0.86239   0.60455   0.09847
H          H       0.13673   0.55309   0.59192   0.09897
H          H       0.44121   0.58029   0.60425   0.10125
H          H       0.56845   0.13801   0.90839   0.10464
H          H       0.85981   0.43295   0.88252   0.10608
H          H       0.56832   0.43493   0.90282   0.10473
H          H       0.43317   0.86433   0.90764   0.10388
H          H       0.13238   0.57264   0.90792   0.10275
H          H       0.42269   0.56140   0.90724   0.10571
H          H       0.56377   0.21765   0.92873   0.10484
H          H       0.78083   0.34809   0.89889   0.10350
H          H       0.65269   0.43980   0.91296   0.10415
H          H       0.43643   0.78414   0.91984   0.10869
H          H       0.21272   0.65639   0.92456   0.10480
H          H       0.33906   0.55680   0.91722   0.10418
H          H       0.43382   0.15154   0.64139   0.11797
H          H       0.85004   0.28280   0.60800   0.11856
H          H       0.71712   0.56708   0.61250   0.11738
H          H       0.56657   0.84670   0.61666   0.11578
H          H       0.15287   0.72076   0.62069   0.11869
H          H       0.28051   0.43117   0.60026   0.11874
H          H       0.43964   0.07197   0.61675   0.11315
H          H       0.92917   0.36863   0.58952   0.11272
H          H       0.63190   0.56069   0.59785   0.11230
H          H       0.56260   0.92674   0.60281   0.11368
H          H       0.07367   0.63597   0.59813   0.11300
H          H       0.36571   0.43673   0.58823   0.11216
H          H       0.72968   0.26349   0.81625   0.05739
H          H       0.73669   0.46961   0.81870   0.05997
H          H       0.53150   0.27010   0.85161   0.05950
H          H       0.26864   0.73929   0.83050   0.05847
H          H       0.25857   0.52917   0.82278   0.05843
H          H       0.46843   0.73056   0.83747   0.06322
C          C       0.55026   0.04489   0.24886   0.03378
C          C       0.95476   0.50309   0.23870   0.03486
C          C       0.49906   0.45174   0.26470   0.03414
C          C       0.45083   0.95374   0.25281   0.03236
C          C       0.04666   0.49626   0.24114   0.03366
C          C       0.50519   0.54973   0.26363   0.03757
C          C       0.50508   0.04890   0.25275   0.02445
C          C       0.95121   0.45406   0.23876   0.02400
C          C       0.54776   0.49759   0.26787   0.02316
C          C       0.49603   0.94981   0.24824   0.02623
C          C       0.04999   0.54526   0.24567   0.02377
C          C       0.45630   0.50408   0.26130   0.02198
C          C       0.45733   0.00333   0.25347  -0.18073
C          C       0.99726   0.45275   0.23885  -0.17888
C          C       0.54890   0.54481   0.27044  -0.17788
C          C       0.54377   0.99533   0.24557  -0.18021
C          C       0.00401   0.54647   0.24330  -0.17642
C          C       0.45519   0.45684   0.26399  -0.17787
C          C       0.60354   0.08899   0.24502   0.04368
C          C       0.91070   0.51198   0.22941   0.04242
C          C       0.49160   0.39907   0.25559   0.04092
C          C       0.39759   0.90951   0.25397   0.04673
C          C       0.09130   0.48777   0.23548   0.04633
C          C       0.51259   0.60183   0.24458   0.04441
C          C       0.50464   0.09800   0.26114   0.07849
C          C       0.90236   0.40411   0.24434   0.07915
C          C       0.59786   0.49936   0.26693   0.07944
C          C       0.49698   0.90101   0.25227   0.07842
C          C       0.09820   0.59551   0.25737   0.07782
C          C       0.40665   0.50337   0.25818   0.07812
C          C       0.64247   0.08803   0.32587  -0.12306
C          C       0.91061   0.55368   0.30475  -0.12126
C          C       0.45181   0.35847   0.33679  -0.12131
C          C       0.35820   0.91192   0.33690  -0.12366
C          C       0.08983   0.44665   0.31175  -0.12618
C          C       0.54385   0.64404   0.33638  -0.12146
C          C       0.69302   0.12857   0.32104  -0.16836
C          C       0.87002   0.56315   0.29299  -0.17298
C          C       0.44401   0.30872   0.32677  -0.17326
C          C       0.30757   0.87163   0.33556  -0.16694
C          C       0.13078   0.43728   0.30434  -0.16479
C          C       0.54745   0.69173   0.31625  -0.18305
C          C       0.70597   0.17269   0.23869   0.20651
C          C       0.82684   0.52969   0.20946   0.20738
C          C       0.47711   0.29818   0.23842   0.20625
C          C       0.29487   0.82627   0.25466   0.20705
C          C       0.17619   0.47047   0.22524   0.20635
C          C       0.52078   0.69845   0.20130   0.20401
C          C       0.66755   0.17374   0.15592  -0.18925
C          C       0.82669   0.48826   0.13247  -0.19017
C          C       0.51667   0.33825   0.15572  -0.18975
C          C       0.33375   0.82347   0.17097  -0.18784
C          C       0.17781   0.51119   0.14692  -0.18873
C          C       0.49237   0.65718   0.10280  -0.16985
C          C       0.61762   0.13239   0.15838  -0.11808
C          C       0.86815   0.48022   0.14187  -0.11967
C          C       0.52316   0.38741   0.16370  -0.11879
C          C       0.38387   0.86448   0.17024  -0.12036
C          C       0.13595   0.51897   0.15084  -0.11871
C          C       0.48814   0.60987   0.12627  -0.12624
C          C       0.53868   0.13898   0.35244  -0.12899
C          C       0.86001   0.39776   0.33182  -0.12952
C          C       0.60560   0.46531   0.35133  -0.12776
C          C       0.46563   0.86226   0.35307  -0.13170
C          C       0.13948   0.60179   0.34212  -0.13139
C          C       0.39970   0.54160   0.33079  -0.12757
C          C       0.53782   0.18471   0.36138  -0.12773
C          C       0.81510   0.35055   0.34092  -0.12653
C          C       0.65279   0.46757   0.34986  -0.12722
C          C       0.46904   0.81812   0.36482  -0.12592
C          C       0.18439   0.64895   0.35275  -0.12852
C          C       0.35275   0.53996   0.32962  -0.12847
C          C       0.50229   0.19105   0.27978   0.04066
C          C       0.81085   0.30712   0.26473   0.04358
C          C       0.69436   0.50440   0.26443   0.04259
C          C       0.50305   0.81026   0.27163   0.04378
C          C       0.18942   0.69250   0.28238   0.04431
C          C       0.31027   0.49969   0.25728   0.04504
C          C       0.46764   0.15010   0.18894  -0.10349
C          C       0.85281   0.31292   0.17610  -0.10381
C          C       0.68719   0.53885   0.17946  -0.10338
C          C       0.53402   0.84848   0.16828  -0.10816
C          C       0.14803   0.68702   0.19931  -0.10533
C          C       0.31680   0.46137   0.18340  -0.10271
C          C       0.46895   0.10453   0.17981  -0.13410
C          C       0.89741   0.36062   0.16544  -0.13692
C          C       0.63966   0.53614   0.18066  -0.13663
C          C       0.53142   0.89327   0.16012  -0.13689
C          C       0.10366   0.63934   0.18595  -0.13492
C          C       0.36410   0.46354   0.18341  -0.13578
C          C       0.76251   0.25861   0.27720   0.07544
C          C       0.74263   0.50410   0.26637   0.07623
C          C       0.50347   0.24019   0.28947   0.07501
C          C       0.23793   0.74078   0.29330   0.07233
C          C       0.26208   0.50040   0.26139   0.07243
C          C       0.50423   0.76243   0.28343   0.07703
C          C       0.55079   0.04617   0.75092   0.03334
C          C       0.95328   0.50618   0.73787   0.03384
C          C       0.49419   0.44900   0.74836   0.03475
C          C       0.45151   0.95454   0.75403   0.03316
C          C       0.04490   0.49898   0.74131   0.03388
C          C       0.50020   0.54736   0.73706   0.02920
C          C       0.50541   0.04992   0.75460   0.02416
C          C       0.94965   0.45711   0.73634   0.02282
C          C       0.54302   0.49486   0.74467   0.02440
C          C       0.49688   0.95079   0.75206   0.02454
C          C       0.04839   0.54798   0.74418   0.02338
C          C       0.45136   0.50150   0.74271   0.02656
C          C       0.45792   0.00407   0.75449  -0.17729
C          C       0.99551   0.45561   0.73773  -0.17803
C          C       0.54375   0.54173   0.73761  -0.17634
C          C       0.54444   0.99663   0.74965  -0.17782
C          C       0.00261   0.54954   0.74161  -0.17770
C          C       0.45050   0.45442   0.74651  -0.18041
C          C       0.60400   0.09039   0.74408   0.04399
C          C       0.90919   0.51514   0.73236   0.04337
C          C       0.48603   0.39609   0.74922   0.04269
C          C       0.39805   0.91061   0.75196   0.04459
C          C       0.08914   0.48998   0.73615   0.04499
C          C       0.50893   0.60035   0.72796   0.04372
C          C       0.50389   0.09851   0.76408   0.07769
C          C       0.90102   0.40700   0.73900   0.08099
C          C       0.59359   0.49757   0.75151   0.07685
C          C       0.49794   0.90204   0.75680   0.07834
C          C       0.09677   0.59803   0.75384   0.07904
C          C       0.40080   0.49917   0.74845   0.07795
C          C       0.64423   0.08965   0.81847  -0.12386
C          C       0.90842   0.55492   0.81715  -0.12374
C          C       0.44526   0.35695   0.83229  -0.12177
C          C       0.35824   0.91308   0.83229  -0.12495
C          C       0.08692   0.44839   0.81174  -0.12616
C          C       0.55326   0.64243   0.78872  -0.11896
C          C       0.69456   0.13045   0.80933  -0.16896
C          C       0.86759   0.56426   0.81040  -0.16989
C          C       0.43633   0.30676   0.83013  -0.17025
C          C       0.30749   0.87305   0.82772  -0.16795
C          C       0.12700   0.43778   0.80147  -0.16966
C          C       0.56281   0.69259   0.77932  -0.16774
C          C       0.70613   0.17478   0.73003   0.20672
C          C       0.82496   0.53256   0.72255   0.20655
C          C       0.46964   0.29446   0.74950   0.20771
C          C       0.29489   0.82781   0.74625   0.20764
C          C       0.17195   0.46987   0.71923   0.20741
C          C       0.52668   0.70242   0.71488   0.20830
C          C       0.66635   0.17580   0.65463  -0.18781
C          C       0.82568   0.49323   0.63593  -0.19042
C          C       0.51028   0.33310   0.66568  -0.18985
C          C       0.33422   0.82500   0.66521  -0.18761
C          C       0.17470   0.51153   0.64353  -0.18948
C          C       0.48263   0.66099   0.65240  -0.19358
C          C       0.61673   0.13408   0.66041  -0.11966
C          C       0.86734   0.48530   0.64044  -0.11934
C          C       0.51748   0.38248   0.66426  -0.11673
C          C       0.38441   0.86578   0.66744  -0.11943
C          C       0.13381   0.52082   0.65133  -0.12044
C          C       0.47474   0.61135   0.65663  -0.11822
C          C       0.53873   0.14059   0.85079  -0.12847
C          C       0.85803   0.40018   0.82383  -0.13184
C          C       0.60083   0.46399   0.84007  -0.13071
C          C       0.46256   0.86074   0.84469  -0.12966
C          C       0.13688   0.60496   0.84508  -0.12851
C          C       0.39187   0.53251   0.84068  -0.12933
C          C       0.53636   0.18552   0.86084  -0.12663
C          C       0.81351   0.35259   0.83132  -0.12798
C          C       0.64821   0.46663   0.84477  -0.12619
C          C       0.46417   0.81548   0.85028  -0.12369
C          C       0.18203   0.65197   0.85358  -0.12865
C          C       0.34469   0.53028   0.84490  -0.12585
C          C       0.49819   0.18973   0.78686   0.04323
C          C       0.81027   0.30953   0.75548   0.04306
C          C       0.69085   0.50404   0.76382   0.04197
C          C       0.50182   0.80986   0.76890   0.04433
C          C       0.18822   0.69450   0.77432   0.04395
C          C       0.30382   0.49378   0.75877   0.04430
C          C       0.46269   0.14775   0.70086  -0.10401
C          C       0.85293   0.31581   0.66962  -0.10346
C          C       0.68449   0.53876   0.67769  -0.10319
C          C       0.53797   0.85119   0.68215  -0.10585
C          C       0.14792   0.68837   0.68494  -0.10517
C          C       0.31173   0.45925   0.66846  -0.10164
C          C       0.46589   0.10322   0.68896  -0.13387
C          C       0.89719   0.36381   0.66085  -0.13483
C          C       0.63666   0.53517   0.67094  -0.13483
C          C       0.53578   0.89618   0.67587  -0.13429
C          C       0.10332   0.64078   0.67386  -0.13504
C          C       0.35949   0.46224   0.66320  -0.13671
C          C       0.76223   0.26081   0.76672   0.07332
C          C       0.73924   0.50388   0.76881   0.07503
C          C       0.49796   0.23808   0.79762   0.07479
C          C       0.23696   0.74256   0.78425   0.07438
C          C       0.25598   0.49512   0.76537   0.07593
C          C       0.50086   0.76100   0.77417   0.07450
N          N       0.75641   0.21451   0.23550  -0.27698
N          N       0.78478   0.53776   0.20250  -0.27740
N          N       0.46976   0.24820   0.22986  -0.27223
N          N       0.24438   0.78472   0.25470  -0.27692
N          N       0.21822   0.46221   0.22322  -0.27826
N          N       0.52187   0.74508   0.17832  -0.28081
N          N       0.75637   0.21681   0.72456  -0.27823
N          N       0.78275   0.54053   0.72000  -0.27684
N          N       0.46172   0.24433   0.74813  -0.27593
N          N       0.24418   0.78662   0.74384  -0.27671
N          N       0.21299   0.46002   0.71183  -0.27483
N          N       0.53521   0.75269   0.71078  -0.29029

