data_crystal

_audit_creation_method 'AiiDA-DDEC plugin'

_cell_length_a        35.38791
_cell_length_b        35.69945
_cell_length_c         7.53598

_cell_angle_alpha     90.00338
_cell_angle_beta     89.89411
_cell_angle_gamma     90.12108

_symmetry_space_group_name_Hall 'P 1'
_symmetry_space_group_name_H-M  'P 1'

loop_
_symmetry_equiv_pos_as_xyz
 'x,y,z'

loop_
_atom_site_label
_atom_site_type_symbol
_atom_site_fract_x
_atom_site_fract_y
_atom_site_fract_z
_atom_site_charge
H          H       0.19107   0.94525   0.35123   0.11228
H          H       0.30983   0.55695   0.85003   0.11232
H          H       0.05733   0.69034   0.61083   0.11296
H          H       0.44276   0.80944   0.10817   0.11290
H          H       0.69022   0.44706   0.86463   0.11306
H          H       0.80899   0.05713   0.35439   0.11337
H          H       0.55329   0.18815   0.11578   0.11266
H          H       0.94355   0.31042   0.60948   0.11342
H          H       0.14085   0.89718   0.38019   0.10899
H          H       0.36008   0.60496   0.87556   0.10789
H          H       0.10508   0.64009   0.64358   0.10721
H          H       0.39398   0.85886   0.13443   0.10713
H          H       0.64051   0.39852   0.89210   0.11049
H          H       0.85976   0.10470   0.37855   0.10824
H          H       0.60175   0.13832   0.14097   0.10860
H          H       0.89558   0.36063   0.63501   0.10734
H          H       0.10241   0.92125   0.85312   0.11281
H          H       0.39659   0.58179   0.34404   0.11301
H          H       0.08192   0.60147   0.11629   0.11282
H          H       0.41822   0.89622   0.60556   0.11229
H          H       0.60272   0.42175   0.36346   0.11416
H          H       0.89621   0.08043   0.84817   0.11250
H          H       0.57802   0.10212   0.61006   0.11377
H          H       0.91936   0.39625   0.10326   0.11226
H          H       0.18467   0.02072   0.64959   0.13120
H          H       0.31555   0.48113   0.14823   0.13021
H          H       0.98277   0.68292   0.90574   0.12890
H          H       0.52012   0.81661   0.40839   0.13035
H          H       0.68394   0.52188   0.16067   0.12941
H          H       0.81396   0.98042   0.65446   0.12949
H          H       0.47764   0.18341   0.41260   0.12927
H          H       0.01979   0.31494   0.90644   0.13021
H          H       0.26250   0.05661   0.51867   0.12955
H          H       0.24050   0.44427   0.02248   0.12935
H          H       0.94445   0.75837   0.77694   0.12812
H          H       0.55557   0.74019   0.27887   0.13004
H          H       0.76234   0.55720   0.03472   0.13092
H          H       0.73945   0.94486   0.53049   0.12757
H          H       0.44139   0.25621   0.29448   0.12850
H          H       0.05652   0.24075   0.77977   0.12897
H          H       0.24311   0.92566   0.04161   0.11413
H          H       0.25655   0.57586   0.54582   0.11492
H          H       0.07663   0.74343   0.29627   0.11527
H          H       0.42408   0.75726   0.79760   0.11484
H          H       0.74207   0.42759   0.54969   0.11414
H          H       0.75563   0.07599   0.05182   0.11514
H          H       0.57204   0.24090   0.80486   0.11451
H          H       0.92394   0.25704   0.30445   0.11482
H          H       0.28806   0.87519   0.11887   0.13027
H          H       0.21100   0.62546   0.62707   0.13049
H          H       0.12623   0.78991   0.37090   0.13077
H          H       0.37402   0.71123   0.87111   0.13073
H          H       0.78789   0.37747   0.61913   0.13057
H          H       0.70985   0.12559   0.13060   0.13126
H          H       0.62187   0.28739   0.87505   0.13076
H          H       0.87453   0.21034   0.37864   0.13015
H          H       0.32936   0.94028   0.55762   0.11523
H          H       0.17150   0.55942   0.06618   0.11430
H          H       0.05953   0.82976   0.80822   0.11420
H          H       0.44009   0.67024   0.30809   0.11392
H          H       0.82963   0.44120   0.06156   0.11535
H          H       0.66915   0.05936   0.56709   0.11368
H          H       0.55595   0.32840   0.31283   0.11740
H          H       0.94138   0.17042   0.81481   0.11405
H          H       0.09572   0.96479   0.69345   0.06723
H          H       0.40378   0.53776   0.18605   0.06655
H          H       0.03860   0.59488   0.95297   0.06680
H          H       0.46277   0.90355   0.44771   0.06644
H          H       0.59559   0.46546   0.20314   0.06783
H          H       0.90289   0.03554   0.69255   0.06683
H          H       0.53381   0.09544   0.45203   0.06734
H          H       0.96368   0.40294   0.94443   0.06674
H          H       0.11654   0.04130   0.24594   0.11465
H          H       0.38349   0.45855   0.74829   0.11475
H          H       0.96205   0.61720   0.50221   0.11507
H          H       0.54014   0.88273   0.00017   0.11473
H          H       0.61904   0.54116   0.75178   0.11549
H          H       0.87971   0.95989   0.24140   0.11471
H          H       0.45766   0.11761   0.00076   0.11450
H          H       0.04289   0.38225   0.50357   0.11385
H          H       0.06282   0.04606   0.03542   0.09867
H          H       0.43774   0.45322   0.53848   0.10054
H          H       0.95655   0.56434   0.29007   0.09727
H          H       0.54520   0.93662   0.79222   0.10059
H          H       0.56642   0.54604   0.53613   0.09681
H          H       0.93365   0.95414   0.03045   0.10046
H          H       0.45234   0.06417   0.79121   0.09735
H          H       0.04873   0.43607   0.29510   0.10073
H          H       0.01317   0.94781   0.26953   0.10597
H          H       0.48612   0.55294   0.76273   0.10213
H          H       0.05256   0.51186   0.53389   0.10743
H          H       0.44623   0.98524   0.02937   0.10421
H          H       0.51360   0.44999   0.77572   0.10559
H          H       0.98602   0.05002   0.27214   0.10387
H          H       0.54917   0.01313   0.03428   0.10759
H          H       0.94878   0.48459   0.52285   0.10270
H          H       0.06624   0.94246   0.47362   0.10978
H          H       0.43270   0.55880   0.96596   0.10869
H          H       0.05865   0.56412   0.73965   0.10949
H          H       0.44074   0.93207   0.23133   0.10905
H          H       0.56555   0.44464   0.98558   0.10956
H          H       0.93281   0.05645   0.47613   0.10853
H          H       0.55503   0.06584   0.23773   0.10812
H          H       0.94249   0.43155   0.72496   0.10900
H          H       0.25510   0.03201   0.97049   0.35159
H          H       0.24530   0.46924   0.47366   0.34923
H          H       0.97076   0.75341   0.22482   0.34760
H          H       0.53252   0.74724   0.73346   0.34869
H          H       0.75460   0.53422   0.48198   0.35190
H          H       0.74423   0.96923   0.98366   0.34820
H          H       0.46596   0.25230   0.74271   0.34919
H          H       0.03117   0.24571   0.23346   0.34885
H          H       0.21694   0.07528   0.33957   0.36716
H          H       0.28649   0.42682   0.84285   0.36705
H          H       0.92763   0.71094   0.60020   0.36735
H          H       0.57366   0.78637   0.09965   0.36526
H          H       0.71574   0.57600   0.86175   0.36680
H          H       0.78567   0.92744   0.35220   0.36595
H          H       0.42353   0.20914   0.11831   0.36695
H          H       0.07467   0.28596   0.59643   0.36610
H          H       0.28572   0.96357   0.80872   0.11117
H          H       0.21337   0.53859   0.30926   0.11209
H          H       0.03747   0.78628   0.06190   0.11202
H          H       0.46682   0.71756   0.57505   0.10979
H          H       0.78349   0.46700   0.32645   0.10952
H          H       0.71229   0.03825   0.81718   0.11174
H          H       0.53476   0.28392   0.57331   0.10988
H          H       0.96441   0.21557   0.07188   0.11184
H          H       0.32600   0.97521   0.07434   0.10308
H          H       0.17449   0.52540   0.57781   0.10371
H          H       0.02484   0.82657   0.32529   0.10401
H          H       0.47842   0.67566   0.83424   0.10151
H          H       0.82567   0.47748   0.58679   0.10238
H          H       0.67245   0.02545   0.08331   0.10241
H          H       0.52404   0.32575   0.83332   0.10415
H          H       0.97576   0.17413   0.33276   0.10354
H          H       0.38143   0.06555   0.80040   0.10776
H          H       0.12590   0.42958   0.31881   0.10910
H          H       0.93181   0.87756   0.05156   0.10735
H          H       0.55977   0.61396   0.52769   0.10741
H          H       0.88790   0.55987   0.28947   0.10724
H          H       0.62218   0.93137   0.81711   0.10939
H          H       0.43219   0.37858   0.55881   0.10768
H          H       0.06464   0.11856   0.04687   0.10897
H          H       0.34110   0.05422   0.53574   0.11171
H          H       0.16434   0.44290   0.04937   0.11031
H          H       0.94424   0.83727   0.78827   0.11262
H          H       0.54932   0.65665   0.27139   0.11374
H          H       0.84496   0.55046   0.03204   0.11385
H          H       0.66168   0.94422   0.55045   0.11102
H          H       0.44258   0.33674   0.29920   0.11349
H          H       0.05400   0.16046   0.78796   0.11330
H          H       0.40371   0.04792   0.08588   0.06216
H          H       0.10625   0.44474   0.61869   0.06435
H          H       0.94769   0.89966   0.34041   0.06398
H          H       0.54142   0.59041   0.81006   0.06297
H          H       0.91150   0.54065   0.56954   0.06269
H          H       0.60147   0.94664   0.11248   0.06433
H          H       0.44969   0.40157   0.84354   0.06308
H          H       0.04590   0.09431   0.32671   0.06267
H          H       0.38616   0.95632   0.49234   0.10296
H          H       0.11696   0.54003   0.00873   0.10321
H          H       0.04002   0.88533   0.74970   0.10295
H          H       0.45511   0.61035   0.23223   0.10444
H          H       0.88983   0.45516   0.99207   0.10461
H          H       0.61343   0.04069   0.50972   0.10237
H          H       0.54086   0.38528   0.25718   0.10333
H          H       0.95674   0.11273   0.74747   0.10317
H          H       0.43334   0.95411   0.73640   0.09613
H          H       0.06906   0.54204   0.24941   0.09615
H          H       0.04220   0.93298   0.98903   0.09447
H          H       0.45265   0.56204   0.46958   0.09502
H          H       0.93829   0.45234   0.22994   0.09486
H          H       0.56530   0.04286   0.74928   0.09602
H          H       0.54361   0.43352   0.49417   0.09505
H          H       0.95364   0.06429   0.98345   0.09629
H          H       0.48782   0.05123   0.51590   0.10010
H          H       0.00987   0.45102  -0.00041   0.10226
H          H       0.95001   0.99093   0.74090   0.10123
H          H       0.55500   0.51393   0.26448   0.09988
H          H       0.98973   0.55202   0.01934   0.10104
H          H       0.50680   0.95114   0.50194   0.10086
H          H       0.45308   0.49271   0.23892   0.10234
H          H       0.04976   0.00965   0.75074   0.10094
H          H       0.44083   0.05467   0.28210   0.10603
H          H       0.05732   0.44820   0.76597   0.10320
H          H       0.94711   0.94391   0.50814   0.10377
H          H       0.55852   0.56228   0.03629   0.10814
H          H       0.94117   0.55607   0.79127   0.10749
H          H       0.55444   0.94816   0.26924   0.10421
H          H       0.44943   0.44509   0.00973   0.10294
H          H       0.05393   0.05780   0.52285   0.10495
C          C       0.14954   0.95576   0.94160   0.03726
C          C       0.35025   0.54674   0.43708   0.03970
C          C       0.04738   0.64850   0.20180   0.03807
C          C       0.45346   0.85020   0.69715   0.03704
C          C       0.64919   0.45695   0.45364   0.03875
C          C       0.84939   0.04595   0.94182   0.03720
C          C       0.54292   0.14814   0.70294   0.03833
C          C       0.95421   0.35016   0.19619   0.03849
C          C       0.17624   0.96132   0.08310   0.04121
C          C       0.32403   0.54087   0.58071   0.04160
C          C       0.04161   0.67521   0.34228   0.04159
C          C       0.45920   0.82400   0.83964   0.04187
C          C       0.67566   0.46294   0.59561   0.04236
C          C       0.82309   0.04055   0.08556   0.04208
C          C       0.53709   0.17399   0.84675   0.04177
C          C       0.95979   0.32417   0.33981   0.04331
C          C       0.17189   0.94011   0.24166  -0.09852
C          C       0.32870   0.56213   0.73890  -0.09838
C          C       0.06257   0.67110   0.50200  -0.10064
C          C       0.43756   0.82824  -0.00232  -0.09973
C          C       0.67132   0.44170   0.75420  -0.10163
C          C       0.82791   0.06196   0.24314  -0.09967
C          C       0.55850   0.16944   0.00486  -0.09951
C          C       0.93846   0.32907   0.49827  -0.10151
C          C       0.14397   0.91340   0.25900  -0.15592
C          C       0.35665   0.58887   0.75432  -0.15840
C          C       0.08915   0.64324   0.52142  -0.15351
C          C       0.41046   0.85572   0.01358  -0.15363
C          C       0.64364   0.41469   0.77083  -0.15563
C          C       0.85613   0.08844   0.25790  -0.15674
C          C       0.58544   0.14181   0.02006  -0.15566
C          C       0.91181   0.35700   0.51379  -0.15668
C          C       0.11920   0.90709   0.11598   0.13979
C          C       0.38104   0.59538   0.60957   0.14155
C          C       0.09563   0.61841   0.37945   0.13939
C          C       0.40402   0.88000   0.86949   0.13726
C          C       0.61910   0.40798   0.62736   0.14269
C          C       0.88059   0.09451   0.11304   0.14141
C          C       0.59188   0.11773   0.87514   0.14030
C          C       0.90544   0.38108   0.36891   0.14256
C          C       0.12166   0.92756   0.96084  -0.22558
C          C       0.37796   0.57516   0.45399  -0.22882
C          C       0.07549   0.62077   0.22313  -0.22822
C          C       0.42474   0.87748   0.71450  -0.22435
C          C       0.62164   0.42838   0.47201  -0.22649
C          C       0.87741   0.07411   0.95801  -0.22672
C          C       0.57143   0.12065   0.71981  -0.22785
C          C       0.92583   0.37781   0.21326  -0.22759
C          C       0.15220   0.97879   0.78527   0.02789
C          C       0.34747   0.52351   0.28159   0.02771
C          C       0.02451   0.65098   0.04467   0.02657
C          C       0.47698   0.84772   0.54182   0.02716
C          C       0.65188   0.47995   0.29734   0.02699
C          C       0.84633   0.02260   0.78681   0.02945
C          C       0.51977   0.15122   0.54690   0.02779
C          C       0.97755   0.34715   0.04026   0.02764
C          C       0.18210   0.00381   0.76913  -0.21498
C          C       0.31778   0.49822   0.26733  -0.21577
C          C      -0.00036   0.68075   0.02580  -0.21261
C          C       0.50268   0.81856   0.52701  -0.21500
C          C       0.68163   0.50517   0.28097  -0.21390
C          C       0.81640   0.99757   0.77325  -0.21519
C          C       0.49459   0.18086   0.53224  -0.21531
C          C       0.00265   0.31745   0.02584  -0.21461
C          C       0.20866   0.00836   0.90591   0.25667
C          C       0.29139   0.49361   0.40537   0.25839
C          C       0.99502   0.70741   0.16112   0.25593
C          C       0.50725   0.79227   0.66405   0.25760
C          C       0.70816   0.51002   0.41773   0.25624
C          C       0.79004   0.99334   0.91168   0.25905
C          C       0.49002   0.20682   0.67080   0.25610
C          C       0.00695   0.29132   0.16392   0.25771
C          C       0.20630   0.98773   0.06355  -0.08473
C          C       0.29414   0.51418   0.56309  -0.08526
C          C       0.01529   0.70508   0.31998  -0.08328
C          C       0.48611   0.79451   0.82088  -0.08493
C          C       0.70564   0.48951   0.57575  -0.08543
C          C       0.79297   0.01410   0.06880  -0.08759
C          C       0.51043   0.20364   0.82893  -0.08308
C          C       0.98627   0.29427   0.32192  -0.08669
C          C       0.23484   0.99266   0.20622  -0.10642
C          C       0.26614   0.50873   0.70818  -0.10673
C          C       0.00956   0.73335   0.46223  -0.10794
C          C       0.49121   0.76634   0.96387  -0.10821
C          C       0.73426   0.49430   0.71813  -0.10877
C          C       0.76492   0.00897   0.21420  -0.10552
C          C       0.50512   0.23141   0.97368  -0.10835
C          C       0.99152   0.26646   0.46674  -0.10829
C          C       0.23697   0.02597   0.30218   0.25390
C          C       0.26500   0.47540   0.80442   0.25295
C          C       0.97609   0.73392   0.55989   0.25617
C          C       0.52453   0.76516   0.06156   0.25305
C          C       0.73634   0.52726   0.81670   0.25375
C          C       0.76389   0.97584   0.31193   0.25204
C          C       0.47209   0.23184   0.07464   0.25373
C          C       0.02509   0.26528   0.56286   0.25572
C          C       0.26261   0.03048   0.44407  -0.28287
C          C       0.23968   0.47035   0.94762  -0.28220
C          C       0.97057   0.75955   0.70041  -0.27970
C          C       0.52945   0.73957   0.20269  -0.27888
C          C       0.76225   0.53136   0.95794  -0.28125
C          C       0.73845   0.97083   0.45476  -0.28110
C          C       0.46720   0.25747   0.21578  -0.27920
C          C       0.03024   0.23996   0.70493  -0.28175
C          C       0.28623   0.00184   0.49736   0.06539
C          C       0.21553   0.49849   0.00249   0.06112
C          C       0.99858   0.78443   0.75127   0.06219
C          C       0.50108   0.71505   0.25229   0.06311
C          C       0.78604   0.50259   0.00756   0.06420
C          C       0.71399   0.99886   0.50787   0.06397
C          C       0.49537   0.28240   0.26373   0.06090
C          C       0.00194   0.21559   0.75736   0.06583
C          C       0.28571   0.96722   0.40090   0.03569
C          C       0.21521   0.53316   0.90640   0.03816
C          C       0.03348   0.78514   0.65416   0.03472
C          C       0.46641   0.71474   0.15454   0.03404
C          C       0.78553   0.46833   0.90864   0.03425
C          C       0.71363   0.03340   0.41074   0.03548
C          C       0.52983   0.28320   0.16331   0.03618
C          C       0.96709   0.21515   0.66078   0.03234
C          C       0.26034   0.96302   0.25325   0.04075
C          C       0.24021   0.53787   0.75716   0.04212
C          C       0.03849   0.75988   0.50727   0.04045
C          C       0.46183   0.74021   0.00841   0.04180
C          C       0.75989   0.46456   0.76195   0.04193
C          C       0.73887   0.03808   0.26231   0.04064
C          C       0.53432   0.25783   0.01670   0.03943
C          C       0.96221   0.24042   0.51399   0.04313
C          C       0.26190   0.92908   0.15441  -0.11351
C          C       0.23800   0.57192   0.65943  -0.11416
C          C       0.07267   0.76227   0.40808  -0.11539
C          C       0.42779   0.73825   0.90886  -0.11551
C          C       0.76131   0.43091   0.66090  -0.11252
C          C       0.73680   0.07209   0.16443  -0.11387
C          C       0.56829   0.25999   0.91579  -0.11449
C          C       0.92799   0.23810   0.41573  -0.11492
C          C       0.28679   0.90073   0.19716  -0.15396
C          C       0.21277   0.59983   0.70435  -0.15381
C          C       0.10054   0.78792   0.44960  -0.15336
C          C       0.39966   0.71280   0.94978  -0.15263
C          C       0.78659   0.40266   0.69976  -0.15510
C          C       0.71142   0.09996   0.20800  -0.15494
C          C       0.59629   0.28570   0.95469  -0.15327
C          C       0.90022   0.21225   0.45689  -0.15281
C          C       0.31092   0.90519   0.34474   0.13895
C          C       0.18893   0.59487   0.85290   0.13778
C          C       0.09534   0.81206   0.59599   0.13900
C          C       0.40448   0.68844   0.09567   0.13883
C          C       0.81114   0.40675   0.84603   0.13940
C          C       0.68713   0.09492   0.35494   0.14011
C          C       0.59138   0.31029   0.09970   0.14107
C          C       0.90547   0.18795   0.60260   0.13828
C          C       0.31054   0.93750   0.44479  -0.20606
C          C       0.19002   0.56248   0.95216  -0.20695
C          C       0.06278   0.81084   0.69652  -0.20496
C          C       0.43694   0.68919   0.19642  -0.20334
C          C       0.81065   0.43862   0.94923  -0.20497
C          C       0.68808   0.06256   0.45455  -0.20484
C          C       0.55909   0.30918   0.20224  -0.20589
C          C       0.93792   0.18933   0.70324  -0.20399
C          C       0.12234   0.97800   0.65192   0.07763
C          C       0.37724   0.52405   0.14725   0.07787
C          C       0.02516   0.62120   0.91227   0.07751
C          C       0.47616   0.87714   0.40762   0.07921
C          C       0.62223   0.47889   0.16305   0.07648
C          C       0.87600   0.02279   0.65196   0.07788
C          C       0.52050   0.12189   0.41212   0.07655
C          C       0.97724   0.37655   0.90560   0.07756
C          C       0.09492   0.99274   0.37960   0.19938
C          C       0.40464   0.50788   0.87682   0.19952
C          C       0.00953   0.59415   0.64056   0.19642
C          C       0.49132   0.90405   0.13547   0.19965
C          C       0.59577   0.49372   0.88846   0.19784
C          C       0.90283   0.00727   0.37904   0.20017
C          C       0.50541   0.09514   0.13939   0.19864
C          C       0.99354   0.40351   0.63455   0.19991
C          C       0.31100   0.00792   0.65316   0.08114
C          C       0.19118   0.49181   0.15960   0.08203
C          C       0.99183   0.80925   0.90607   0.08081
C          C       0.50733   0.68974   0.40563   0.08234
C          C       0.81155   0.50807   0.16146   0.08160
C          C       0.68934   0.99230   0.66423   0.08227
C          C       0.48941   0.30763   0.41770   0.08112
C          C       0.00831   0.19056   0.91149   0.07996
C          C       0.09348   0.02110   0.25042  -0.15642
C          C       0.40644   0.47888   0.75090  -0.15732
C          C       0.98152   0.59367   0.50872  -0.15453
C          C       0.51995   0.90566   0.00625  -0.15829
C          C       0.59551   0.52150   0.75645  -0.15585
C          C       0.90347   0.97925   0.24792  -0.15745
C          C       0.47735   0.09427   0.00777  -0.15683
C          C       0.02266   0.40516   0.50757  -0.15581
C          C       0.06326   0.02348   0.13211  -0.14807
C          C       0.43691   0.47614   0.63333  -0.14584
C          C       0.97868   0.56382   0.38974  -0.14884
C          C       0.52248   0.93594   0.88941  -0.14587
C          C       0.56586   0.52393   0.63513  -0.14816
C          C       0.93376   0.97630   0.12945  -0.14575
C          C       0.47470   0.06421   0.88979  -0.14696
C          C       0.02563   0.43538   0.39039  -0.14724
C          C       0.03371   0.99727   0.13551   0.05929
C          C       0.46624   0.50257   0.63532   0.06037
C          C       0.00400   0.53368   0.39555   0.05880
C          C       0.49616   0.96522   0.89487   0.05822
C          C       0.53571   0.49839   0.63843   0.05925
C          C       0.96412   0.00154   0.13572   0.05974
C          C       0.50036   0.03436   0.89594   0.05858
C          C      -0.00071   0.46465   0.39342   0.06189
C          C       0.03567   0.96851   0.26275  -0.11275
C          C       0.46386   0.53195   0.75894  -0.11232
C          C       0.03245   0.53474   0.52556  -0.11311
C          C       0.46710   0.96302   0.02185  -0.11061
C          C       0.53659   0.47015   0.76854  -0.11414
C          C       0.96289   0.03002   0.26440  -0.11142
C          C       0.52890   0.03586   0.02536  -0.11509
C          C       0.96973   0.46240   0.51786  -0.11362
C          C       0.06571   0.96577   0.38075  -0.16492
C          C       0.43363   0.53506   0.87572  -0.16550
C          C       0.03565   0.56438   0.64414  -0.16371
C          C       0.46424   0.93295   0.13823  -0.16555
C          C       0.56601   0.46740   0.88971  -0.16213
C          C       0.93281   0.03337   0.38199  -0.16526
C          C       0.53190   0.06569   0.14294  -0.16079
C          C       0.96641   0.43240   0.63434  -0.16565
C          C       0.30691   0.98566   0.80657  -0.13996
C          C       0.19377   0.51510   0.31017  -0.13816
C          C       0.01457   0.80652   0.05906  -0.13941
C          C       0.48728   0.69497   0.56551  -0.13693
C          C       0.80629   0.48741   0.31907  -0.13839
C          C       0.69216   0.01521   0.81609  -0.13856
C          C       0.51245   0.30480   0.56963  -0.13445
C          C       0.98627   0.19424   0.06660  -0.13756
C          C       0.32893   0.99228   0.95553  -0.11521
C          C       0.17255   0.50760   0.46112  -0.11855
C          C       0.00741   0.82860   0.20695  -0.11685
C          C       0.49387   0.67192   0.71059  -0.11610
C          C       0.82947   0.49339   0.46491  -0.11507
C          C       0.67038   0.00794   0.96564  -0.11628
C          C       0.50643   0.32777   0.71557  -0.11649
C          C       0.99271   0.17150   0.21284  -0.11657
C          C       0.35640   0.02088   0.95448   0.05196
C          C       0.14757   0.47687   0.46601   0.05177
C          C       0.97768   0.85477   0.20547   0.04989
C          C       0.51984   0.64221   0.69798   0.04732
C          C       0.85940   0.51936   0.45529   0.04818
C          C       0.64456   0.97787   0.96741   0.05273
C          C       0.47760   0.35489   0.71290   0.05029
C          C       0.02073   0.14357   0.20652   0.05011
C          C       0.36001   0.04359   0.80306  -0.12586
C          C       0.14543   0.45321   0.31737  -0.13124
C          C       0.95457   0.85707   0.05457  -0.12461
C          C       0.54016   0.63730   0.53957  -0.12106
C          C       0.86439   0.54023   0.29906  -0.12272
C          C       0.64227   0.95452   0.81772  -0.12941
C          C       0.45425   0.35737   0.56285  -0.12535
C          C       0.04319   0.14036   0.05344  -0.12656
C          C       0.33754   0.03719   0.65433  -0.12687
C          C       0.16685   0.46071   0.16590  -0.12585
C          C       0.96157   0.83463   0.90667  -0.12783
C          C       0.53417   0.66100   0.39537  -0.12801
C          C       0.84056   0.53483   0.15423  -0.12748
C          C       0.66431   0.96175   0.66789  -0.12700
C          C       0.46008   0.33402   0.41699  -0.13074
C          C       0.03717   0.16370   0.90788  -0.12596
C          C       0.38275   0.02535   0.10158   0.06680
C          C       0.12241   0.47113   0.61751   0.06775
C          C       0.97227   0.88098   0.35196   0.06671
C          C       0.52332   0.61466   0.84000   0.07346
C          C       0.88702   0.52255   0.59809   0.07163
C          C       0.61871   0.97234   0.11647   0.06657
C          C       0.47331   0.38178   0.85739   0.06685
C          C       0.02474   0.11635   0.34965   0.06829
C          C       0.40955   0.00525   0.36995   0.19379
C          C       0.09156   0.49375   0.87244   0.19200
C          C       0.99344   0.91036   0.61313   0.19099
C          C       0.50634   0.58979   0.11630   0.19804
C          C       0.91194   0.50516   0.87356   0.19474
C          C       0.58822   0.99428   0.37381   0.19350
C          C       0.49493   0.41086   0.11789   0.19300
C          C       0.00515   0.08921   0.61824   0.19402
C          C       0.40831   0.97739   0.50127  -0.15084
C          C       0.09376   0.52005   0.01065  -0.15131
C          C       0.01997   0.90835   0.75110  -0.14977
C          C       0.47704   0.58915   0.24206  -0.15571
C          C       0.91178   0.47646   0.00083  -0.15533
C          C       0.59022   0.02070   0.51147  -0.15191
C          C       0.52129   0.40872   0.25651  -0.15145
C          C       0.97732   0.09016   0.75114  -0.15271
C          C       0.43500   0.97617   0.63745  -0.14862
C          C       0.06657   0.52120   0.14513  -0.14947
C          C       0.02113   0.93533   0.88513  -0.14871
C          C       0.47583   0.56199   0.37497  -0.14855
C          C       0.93909   0.47500   0.13392  -0.14879
C          C       0.56295   0.02190   0.64553  -0.15029
C          C       0.52288   0.43608   0.38885  -0.14999
C          C       0.97566   0.06276   0.88322  -0.15061
C          C       0.46421   0.00247   0.64488   0.06522
C          C       0.03581   0.49660   0.14348   0.06644
C          C       0.99618   0.96560   0.88412   0.06449
C          C       0.50374   0.53446   0.38626   0.06121
C          C       0.96767   0.50199   0.14357   0.06264
C          C       0.53234   0.99715   0.64438   0.06561
C          C       0.49859   0.46686   0.38500   0.06555
C          C       0.00153   0.03328   0.88557   0.06338
C          C       0.46495   0.03086   0.51481  -0.11304
C          C       0.03401   0.46983   0.00619  -0.11269
C          C       0.96915   0.96721   0.74704  -0.11657
C          C       0.53337   0.53549   0.26118  -0.11325
C          C       0.96742   0.53107   0.01703  -0.11332
C          C       0.53075   0.97019   0.50777  -0.11305
C          C       0.47180   0.46867   0.24702  -0.11596
C          C       0.02978   0.03272   0.75351  -0.11427
C          C       0.43824   0.03264   0.38098  -0.16810
C          C       0.06113   0.46817   0.87348  -0.16867
C          C       0.96755   0.94035   0.61437  -0.16495
C          C       0.53511   0.56271   0.12997  -0.16862
C          C       0.94003   0.53310   0.88593  -0.16785
C          C       0.55796   0.96850   0.37540  -0.16845
C          C       0.46975   0.44143   0.11637  -0.16475
C          C       0.03195   0.06005   0.62327  -0.16539
C          C       0.99890  -0.00066   0.01226   0.01267
C          C       0.50124   0.50058   0.51319   0.01152
C          C       0.00166   0.49931   0.27127   0.00878
C          C       0.49821  -0.00016   0.77249   0.01204
N          N       0.12573   0.99351   0.49738  -0.28821
N          N       0.37385   0.50758   0.99502  -0.28830
N          N       0.00923   0.62462   0.75867  -0.28774
N          N       0.49189   0.87354   0.25340  -0.28893
N          N       0.62607   0.49443   0.00882  -0.28870
N          N       0.87208   0.00723   0.49783  -0.28938
N          N       0.50483   0.12556   0.25800  -0.28829
N          N       0.99369   0.37302   0.75282  -0.28843
N          N       0.38236   0.00259   0.23505  -0.28883
N          N       0.11858   0.49683   0.73688  -0.28288
N          N       0.99637   0.88295   0.48023  -0.28620
N          N       0.50441   0.61777   0.98589  -0.29076
N          N       0.88377   0.50345   0.74285  -0.28918
N          N       0.61553   0.99738   0.23935  -0.28562
N          N       0.49715   0.38293   0.98697  -0.28729
N          N       0.00310   0.11726   0.48789  -0.28964
Cl         Cl      0.08434   0.87273   0.13715  -0.06721
Cl         Cl      0.41616   0.62945   0.62954  -0.06573
Cl         Cl      0.12973   0.58358   0.40292  -0.06539
Cl         Cl      0.36943   0.91448   0.88938  -0.06537
Cl         Cl      0.58460   0.37321   0.64797  -0.06905
Cl         Cl      0.91598   0.12835   0.13249  -0.06649
Cl         Cl      0.62653   0.08328   0.89373  -0.06488
Cl         Cl      0.87126   0.41604   0.38807  -0.06648
Cl         Cl      0.34194   0.86908   0.40152  -0.07610
Cl         Cl      0.15746   0.63038   0.91209  -0.07367
Cl         Cl      0.13081   0.84413   0.65039  -0.07701
Cl         Cl      0.36853   0.65671   0.14883  -0.07691
Cl         Cl      0.84257   0.37069   0.89759  -0.07695
Cl         Cl      0.65504   0.13016   0.41060  -0.07634
Cl         Cl      0.62690   0.34261   0.15004  -0.08019
Cl         Cl      0.87024   0.15546   0.65575  -0.07538
O          O       0.23647   0.03426   0.87554  -0.43793
O          O       0.26352   0.46767   0.37632  -0.43502
O          O       0.96927   0.73513   0.12845  -0.43539
O          O       0.53365   0.76498   0.63475  -0.43526
O          O       0.73600   0.53597   0.38659  -0.43743
O          O       0.76192   0.96763   0.88417  -0.43484
O          O       0.46433   0.23484   0.64306  -0.43614
O          O       0.03266   0.26338   0.13457  -0.43556
O          O       0.21299   0.05473   0.25713  -0.43580
O          O       0.28963   0.44720   0.75845  -0.43520
O          O       0.94854   0.70821   0.51748  -0.43562
O          O       0.55279   0.79002   0.01789  -0.43471
O          O       0.71215   0.55609   0.77541  -0.43492
O          O       0.78874   0.94774   0.26737  -0.43334
O          O       0.44429   0.20614   0.03495  -0.43499
O          O       0.05342   0.28993   0.51720  -0.43618

