data_crystal

_audit_creation_method 'AiiDA-DDEC plugin'

_cell_length_a        29.41212
_cell_length_b        29.67057
_cell_length_c         7.82263

_cell_angle_alpha     90.16080
_cell_angle_beta     89.94698
_cell_angle_gamma     89.87078

_symmetry_space_group_name_Hall 'P 1'
_symmetry_space_group_name_H-M  'P 1'

loop_
_symmetry_equiv_pos_as_xyz
 'x,y,z'

loop_
_atom_site_label
_atom_site_type_symbol
_atom_site_fract_x
_atom_site_fract_y
_atom_site_fract_z
_atom_site_charge
H          H       0.78717   0.94180   0.70309   0.11942
H          H       0.71838   0.55902   0.24370   0.12224
H          H       0.05796   0.29185   0.92605   0.11929
H          H       0.44315   0.21329   0.47496   0.12092
H          H       0.29488   0.44120   0.17196   0.11839
H          H       0.21713   0.05829   0.74469   0.12142
H          H       0.55764   0.78756   0.45622   0.11898
H          H       0.93668   0.71964   0.98831   0.12206
H          H       0.79000   0.87513   0.51048   0.12479
H          H       0.71356   0.62752   0.06281   0.12764
H          H       0.12510   0.29307   0.73235   0.12839
H          H       0.37590   0.20554   0.28538   0.12612
H          H       0.29749   0.37499   0.97702   0.12748
H          H       0.21065   0.12668   0.56435   0.12774
H          H       0.62496   0.79035   0.26415   0.12544
H          H       0.86755   0.71533   0.80685   0.12501
H          H       0.67149   0.92450   0.24294   0.12946
H          H       0.82842   0.58217   0.76885   0.12702
H          H       0.07531   0.17503   0.47247   0.12320
H          H       0.41641   0.32372   0.00815   0.12703
H          H       0.17894   0.42400   0.71337   0.12172
H          H       0.32501   0.08315   0.26406   0.12856
H          H       0.57608   0.67344   0.99362   0.12277
H          H       0.91383   0.82876   0.51440   0.12710
H          H       0.63118   0.06089   0.54151   0.12493
H          H       0.86935   0.43953   0.02737   0.12509
H          H       0.94424   0.13019   0.80086   0.12556
H          H       0.55646   0.37002   0.28239   0.12369
H          H       0.13257   0.55462   0.03429   0.11100
H          H       0.37091   0.94251   0.52553   0.12546
H          H       0.44278   0.62829   0.30832   0.12574
H          H       0.05749   0.86869   0.77523   0.12421
H          H       0.79054   0.97012   0.23057   0.12517
H          H       0.71649   0.52658   0.75368   0.13480
H          H       0.03608   0.29727   0.45817   0.13677
H          H       0.47141   0.21164   0.98664   0.13425
H          H       0.29731   0.46404   0.70542   0.13306
H          H       0.21355   0.02398   0.24737   0.13579
H          H       0.53422   0.79236   0.98133   0.13692
H          H       0.96730   0.71857   0.49751   0.13618
H          H       0.75970   0.07436   0.59875   0.11062
H          H       0.74236   0.42735   0.10361   0.11084
H          H       0.92451   0.25914   0.84652   0.11232
H          H       0.57377   0.24377   0.34865   0.11094
H          H       0.26178   0.57480   0.09280   0.10771
H          H       0.24337   0.92710   0.59525   0.11190
H          H       0.42503   0.75738   0.36100   0.11350
H          H       0.07040   0.74250   0.85331   0.11221
H          H       0.79850   0.14861   0.60807   0.12563
H          H       0.70114   0.35458   0.10245   0.12376
H          H       0.84789   0.29407   0.86702   0.12475
H          H       0.64789   0.20353   0.34603   0.12446
H          H       0.29663   0.65079   0.11681   0.12220
H          H       0.20217   0.85438   0.58597   0.12499
H          H       0.34959   0.79501   0.37432   0.12433
H          H       0.14359   0.70058   0.85707   0.12948
H          H       0.85380   0.11776   0.10109   0.12721
H          H       0.64660   0.38277   0.59990   0.12685
H          H       0.88167   0.35176   0.35311   0.12693
H          H       0.61887   0.14586   0.83585   0.12786
H          H       0.35240   0.61670   0.60587   0.12413
H          H       0.14510   0.88039   0.08169   0.12668
H          H       0.38166   0.85064   0.86561   0.12556
H          H       0.11282   0.64952   0.35687   0.12071
H          H       0.60769   0.03522   0.29516   0.06056
H          H       0.89372   0.47187   0.79036   0.06785
H          H       0.96967   0.10504   0.55148   0.06115
H          H       0.52511   0.39233   0.04063   0.06814
H          H       0.10885   0.53046   0.78953   0.05788
H          H       0.39415   0.97526   0.29037   0.06846
H          H       0.46903   0.60414   0.06100   0.06151
H          H       0.02546   0.89255   0.53884   0.06933
H          H       0.86239   0.07034   0.29200   0.07131
H          H       0.63676   0.43016   0.78956   0.06893
H          H       0.93135   0.36512   0.52807   0.07018
H          H       0.57024   0.13434   0.02291   0.07124
H          H       0.36293   0.56881   0.78622   0.06976
H          H       0.13368   0.92767   0.27364   0.07015
H          H       0.43089   0.86324   0.04387   0.07056
H          H       0.06496   0.63869   0.53584   0.06554
H          H       0.57518   0.05633   0.09401   0.09592
H          H       0.91931   0.44491   0.58015   0.09823
H          H       0.94238   0.07757   0.33499   0.09744
H          H       0.55582   0.41420   0.82892   0.09884
H          H       0.08002   0.55693   0.57649   0.09791
H          H       0.42063   0.94782   0.08764   0.09985
H          H       0.44270   0.57771   0.84296   0.09880
H          H       0.05322   0.91742   0.33462   0.09892
H          H       0.51935   0.06131   0.86517   0.10614
H          H       0.97655   0.44150   0.35521   0.10808
H          H       0.93796   0.02002   0.11113   0.10718
H          H       0.56052   0.47344   0.61363   0.10949
H          H       0.02189   0.56229   0.35347   0.10644
H          H       0.47897   0.94411   0.86681   0.10986
H          H       0.43788   0.52174   0.61368   0.10735
H          H       0.05829   0.97482   0.11295   0.10932
H          H       0.56975   0.93781   0.64533   0.11300
H          H       0.92677   0.56620   0.14577   0.11320
H          H       0.06620   0.06389   0.90595   0.11310
H          H       0.43154   0.43246   0.40610   0.11395
H          H       0.06427   0.43439   0.14711   0.11287
H          H       0.42792   0.06629   0.64184   0.11439
H          H       0.56757   0.56463   0.41844   0.11209
H          H       0.93267   0.92852   0.89327   0.11358
H          H       0.62686   0.93268   0.87803   0.12567
H          H       0.86879   0.56985   0.37372   0.12919
H          H       0.07112   0.12166   0.13487   0.11973
H          H       0.42637   0.37269   0.62459   0.12928
H          H       0.12243   0.42840   0.37473   0.12022
H          H       0.36882   0.07062   0.86692   0.12927
H          H       0.57276   0.62069   0.65238   0.11826
H          H       0.92701   0.87050   0.11868   0.12875
H          H       0.86722   0.06505   0.62085   0.10262
H          H       0.63223   0.43229   0.12235   0.09991
H          H       0.93556   0.36762   0.86387   0.10454
H          H       0.56515   0.13385   0.36991   0.10242
H          H       0.36622   0.56337   0.12390   0.10345
H          H       0.13214   0.93113   0.62085   0.10100
H          H       0.43642   0.86649   0.38480   0.10419
H          H       0.06316   0.63360   0.86516   0.09945
H          H       0.92703   0.06109   0.84162   0.09844
H          H       0.57200   0.43502   0.34145   0.09713
H          H       0.93669   0.42730   0.08484   0.09974
H          H       0.56149   0.07498   0.59232   0.09821
H          H       0.42521   0.56054   0.34727   0.09802
H          H       0.07211   0.93466   0.84130   0.09792
H          H       0.43851   0.92740   0.60033   0.10075
H          H       0.06162   0.57283   0.08022   0.09231
H          H       0.97774   0.93891   0.61702   0.09206
H          H       0.52354   0.55989   0.13430   0.09582
H          H       0.05736   0.48282   0.86095   0.09541
H          H       0.44093   0.02165   0.36116   0.09180
H          H       0.48129   0.44129   0.11770   0.09141
H          H       0.02036   0.05616   0.61723   0.09506
H          H       0.55739   0.98224   0.36072   0.09767
H          H       0.93693   0.52357   0.86733   0.09324
H          H       0.91615   0.94099   0.40156   0.11507
H          H       0.58573   0.55911   0.92249   0.11702
H          H       0.05869   0.42113   0.64824   0.11627
H          H       0.44272   0.08189   0.14367   0.11632
H          H       0.42035   0.44199   0.90013   0.11299
H          H       0.08201   0.05459   0.40330   0.11726
H          H       0.55775   0.91955   0.15312   0.11730
H          H       0.93683   0.58557   0.65694   0.11881
H          H       0.69763   0.06227   0.91522   0.35410
H          H       0.80587   0.43208   0.40601   0.35050
H          H       0.94389   0.19812   0.16819   0.35725
H          H       0.56190   0.30700   0.66331   0.35043
H          H       0.16637   0.58681   0.27818   0.32773
H          H       0.30754   0.93362   0.90519   0.35043
H          H       0.43945   0.69552   0.67720   0.35649
H          H       0.06296   0.80678   0.15819   0.35052
H          H       0.73230   0.93224   0.09732   0.33065
H          H       0.80881   0.53868   0.56332   0.29533
H          H       0.06275   0.22191   0.12210   0.35384
H          H       0.46053   0.30597   0.80211   0.29816
H          H       0.22367   0.43749   0.36434   0.35050
H          H       0.30755   0.03746   0.05863   0.29573
H          H       0.55996   0.71583   0.64931   0.35346
H          H       0.95745   0.81057   0.30881   0.29446
C          C       0.69520   0.96696   0.44883   0.05342
C          C       0.80638   0.53587   0.96657   0.04582
C          C       0.03416   0.19738   0.68528   0.04660
C          C       0.46327   0.30297   0.20698   0.04632
C          C       0.20042   0.46472   0.92756   0.05008
C          C       0.30455   0.03654   0.46316   0.04594
C          C       0.53435   0.69473   0.20610   0.04587
C          C       0.96031   0.80658   0.71219   0.04515
C          C       0.72677   0.97055   0.58798   0.04188
C          C       0.77649   0.53079   0.11068   0.03917
C          C       0.03050   0.22966   0.82237   0.02900
C          C       0.46903   0.27300   0.34927   0.04041
C          C       0.23243   0.46842   0.06621   0.02157
C          C       0.27495   0.03073   0.60774   0.03949
C          C       0.53028   0.72631   0.34523   0.02846
C          C       0.96529   0.77688   0.85562   0.03890
C          C       0.76187   0.93773   0.60306  -0.08808
C          C       0.74229   0.56385   0.13945  -0.09680
C          C       0.06252   0.26549   0.83055  -0.13047
C          C       0.43764   0.23718   0.37194  -0.09871
C          C       0.26865   0.43663   0.07561  -0.12525
C          C       0.24036   0.06328   0.63837  -0.10037
C          C       0.56240   0.76192   0.35819  -0.12706
C          C       0.93193   0.74319   0.88373  -0.09716
C          C       0.76367   0.90061   0.49647  -0.15455
C          C       0.73957   0.60210   0.03990  -0.15027
C          C       0.09969   0.26663   0.72234  -0.14592
C          C       0.40008   0.23280   0.26758  -0.14982
C          C       0.27054   0.39996   0.96660  -0.14597
C          C       0.23677   0.10153   0.53923  -0.15034
C          C       0.59973   0.76384   0.25103  -0.14841
C          C       0.89335   0.74078   0.78383  -0.14774
C          C       0.72994   0.89549   0.36955   0.13285
C          C       0.77179   0.60854   0.90851   0.15418
C          C       0.10493   0.23239   0.59834   0.15150
C          C       0.39253   0.26516   0.13878   0.15324
C          C       0.23662   0.39478   0.84073   0.15304
C          C       0.26835   0.10849   0.40600   0.15306
C          C       0.60516   0.73043   0.12398   0.15154
C          C       0.88699   0.77278   0.65289   0.15269
C          C       0.69692   0.92810   0.34270  -0.23566
C          C       0.80431   0.57622   0.87098  -0.20699
C          C       0.07219   0.19954   0.57475  -0.19778
C          C       0.42330   0.29939   0.10777  -0.20309
C          C       0.20325   0.42705   0.81666  -0.19669
C          C       0.30131   0.07673   0.36710  -0.20414
C          C       0.57269   0.69748   0.09736  -0.19662
C          C       0.91969   0.80478   0.61605  -0.20616
C          C       0.66215   0.00236   0.42648   0.02717
C          C       0.83800   0.49997   0.92972   0.01723
C          C      -0.00035   0.16306   0.67106   0.03139
C          C       0.49805   0.33612   0.17572   0.01768
C          C       0.16594   0.49902   0.91059   0.04159
C          C       0.33728   0.00159   0.42694   0.01733
C          C       0.49964   0.66081   0.18688   0.03202
C          C       0.99657   0.83779   0.67677   0.01733
C          C       0.65701   0.03483   0.55390  -0.23289
C          C       0.84440   0.46592   0.05001  -0.22937
C          C       0.96897   0.15733   0.80472  -0.23591
C          C       0.53114   0.34384   0.30020  -0.23098
C          C       0.16029   0.53031   0.04211  -0.26677
C          C       0.34493   0.96794   0.54788  -0.22854
C          C       0.46788   0.65501   0.31683  -0.23072
C          C       0.03074   0.84422   0.79794  -0.23146
C          C       0.68496   0.03527   0.69926   0.26094
C          C       0.81836   0.46402   0.20004   0.25163
C          C       0.96874   0.18611   0.94754   0.26259
C          C       0.53325   0.31760   0.44884   0.25158
C          C       0.18923   0.53128   0.18478   0.25953
C          C       0.31899   0.96535   0.69805   0.25326
C          C       0.46688   0.68329   0.46107   0.26362
C          C       0.03223   0.81855   0.94806   0.25212
C          C       0.72204   0.00601   0.71042  -0.07636
C          C       0.78220   0.49378   0.22497  -0.07046
C          C       0.99622   0.22442   0.95072  -0.11736
C          C       0.50516   0.28022   0.46740  -0.07601
C          C       0.22716   0.50301   0.19266  -0.08194
C          C       0.28170   0.99378   0.72151  -0.07601
C          C       0.49521   0.72089   0.47043  -0.11982
C          C       0.00242   0.78263   0.97072  -0.07497
C          C       0.75500   0.01356   0.85004  -0.09927
C          C       0.75028   0.48496   0.36769  -0.10401
C          C       0.98863   0.25769   0.08928  -0.12319
C          C       0.51474   0.24861   0.60901  -0.10381
C          C       0.26007   0.51062   0.33288  -0.08391
C          C       0.24966   0.98373   0.86269  -0.10175
C          C       0.48732   0.75382   0.60997  -0.12431
C          C       0.01102   0.75126   0.11397  -0.10098
C          C       0.75824   0.98398   0.98791   0.26966
C          C       0.74946   0.51252   0.51278   0.27279
C          C       0.01997   0.26311   0.22147   0.26518
C          C       0.48666   0.24688   0.75271   0.27182
C          C       0.26508   0.47956   0.46488   0.26548
C          C       0.24803   0.01069   0.00917   0.27357
C          C       0.51805   0.75849   0.74459   0.26758
C          C       0.98281   0.75109   0.25787   0.27482
C          C       0.78730   0.99392   0.12557  -0.23374
C          C       0.71807   0.50364   0.64492  -0.20473
C          C       0.01079   0.29273   0.35821  -0.20056
C          C       0.49526   0.21464   0.88079  -0.20247
C          C       0.29344   0.48905   0.60515  -0.19938
C          C       0.21591   0.00127   0.13812  -0.20441
C          C       0.50905   0.78842   0.88055  -0.20021
C          C       0.99098   0.71990   0.39056  -0.20085
C          C       0.81321   0.03299   0.13103   0.02976
C          C       0.68929   0.46649   0.64136   0.02139
C          C       0.97009   0.31648   0.36915   0.02220
C          C       0.53332   0.18674   0.87665   0.01993
C          C       0.31646   0.52972   0.62002   0.01915
C          C       0.18733   0.96404   0.13068   0.01963
C          C       0.46900   0.81327   0.88842   0.02234
C          C       0.02841   0.69116   0.38909   0.02123
C          C       0.80982   0.06526   0.99478   0.03794
C          C       0.69224   0.43492   0.50131   0.04143
C          C       0.93590   0.31075   0.23903   0.03575
C          C       0.56571   0.19104   0.73936   0.03988
C          C       0.31128   0.56340   0.48913   0.03824
C          C       0.19112   0.93297   0.98932   0.04165
C          C       0.43541   0.80832   0.75563   0.03696
C          C       0.06070   0.69385   0.25106   0.04511
C          C       0.78144   0.05398   0.85113   0.02630
C          C       0.72162   0.44607   0.36011   0.02641
C          C       0.94680   0.28237   0.09511   0.03318
C          C       0.55446   0.22086   0.60069   0.02920
C          C       0.28380   0.55251   0.34262   0.04870
C          C       0.22126   0.94473   0.85106   0.02679
C          C       0.44627   0.77969   0.61227   0.03316
C          C       0.05021   0.72264   0.10858   0.02782
C          C       0.77944   0.08408   0.71021  -0.11562
C          C       0.72235   0.41743   0.21403  -0.11310
C          C       0.91509   0.27865   0.95890  -0.11539
C          C       0.58386   0.22310   0.45666  -0.11051
C          C       0.28042   0.58424   0.20739  -0.11369
C          C       0.22278   0.91667   0.70348  -0.11066
C          C       0.41544   0.77711   0.47275  -0.11482
C          C       0.07985   0.72280   0.96469  -0.10637
C          C       0.80112   0.12512   0.71390  -0.16626
C          C       0.69933   0.37716   0.21183  -0.16808
C          C       0.87269   0.29819   0.96865  -0.16806
C          C       0.62483   0.20069   0.45394  -0.16972
C          C       0.30003   0.62625   0.21884  -0.17690
C          C       0.19973   0.87640   0.69687  -0.16904
C          C       0.37365   0.79799   0.47899  -0.16713
C          C       0.12036   0.69945   0.96509  -0.16718
C          C       0.82669   0.13704   0.85964   0.14047
C          C       0.67369   0.36460   0.35645   0.14402
C          C       0.86081   0.32296   0.11630   0.14385
C          C       0.63733   0.17435   0.59621   0.14414
C          C       0.32464   0.63759   0.36755   0.14057
C          C       0.17324   0.86332   0.83867   0.14384
C          C       0.36159   0.82280   0.62633   0.14236
C          C       0.13194   0.67428   0.11125   0.13365
C          C       0.83250   0.10754   0.99462  -0.21605
C          C       0.66831   0.39326   0.49507  -0.21671
C          C       0.89191   0.33082   0.24575  -0.21710
C          C       0.60817   0.16795   0.73305  -0.21713
C          C       0.33164   0.60680   0.49742  -0.21567
C          C       0.16729   0.89132   0.97892  -0.21728
C          C       0.39203   0.82960   0.75873  -0.21722
C          C       0.10267   0.67000   0.24853  -0.22679
C          C       0.63289   0.00808   0.27836   0.07235
C          C       0.86519   0.49549   0.77616   0.08433
C          C       0.99418   0.13230   0.52697   0.07680
C          C       0.50219   0.36352   0.02339   0.08737
C          C       0.13510   0.50458   0.76641   0.08395
C          C       0.36490   0.99788   0.27420   0.08452
C          C       0.49437   0.63087   0.04039   0.07712
C          C       0.00131   0.86467   0.52381   0.08489
C          C       0.60477   0.99310   0.00480   0.19540
C          C       0.89051   0.50883   0.49705   0.18642
C          C       0.00784   0.10357   0.25294   0.19755
C          C       0.48976   0.38976   0.74609   0.18926
C          C       0.10533   0.49141   0.49376   0.20183
C          C       0.39094   0.01060  -0.00372   0.18636
C          C       0.50875   0.60315   0.76567   0.19412
C          C       0.98858   0.89050   0.24591   0.18677
C          C       0.84583   0.03761   0.27185   0.08060
C          C       0.65514   0.46222   0.77782   0.07796
C          C       0.96462   0.34880   0.51059   0.07978
C          C       0.53790   0.15272   0.01205   0.08170
C          C       0.34757   0.53550   0.76557   0.08164
C          C       0.15270   0.95943   0.26538   0.08042
C          C       0.46385   0.84622   0.02804   0.08127
C          C       0.03258   0.65699   0.52386   0.07732
C          C       0.88855   0.00396   0.49177   0.19936
C          C       0.61210   0.49459   0.00108   0.20038
C          C       0.99609   0.39145   0.73508   0.20147
C          C       0.50497   0.11116   0.23736   0.20272
C          C       0.39002   0.50362   0.99177   0.20326
C          C       0.11024   0.99167   0.49138   0.20266
C          C       0.49600   0.88974   0.24878   0.20174
C          C       0.00060   0.61320   0.74254   0.20060
C          C       0.57492   0.03030   0.99581  -0.16342
C          C       0.92049   0.47182   0.48622  -0.15679
C          C       0.96966   0.07506   0.24145  -0.16223
C          C       0.52817   0.41800   0.73775  -0.16018
C          C       0.07721   0.52994   0.48257  -0.17061
C          C       0.42171   0.97415   0.99129  -0.15871
C          C       0.47014   0.57540   0.75010  -0.15865
C          C       0.02641   0.91950   0.23931  -0.15887
C          C       0.54343   0.03344   0.86483  -0.12353
C          C       0.95261   0.46949   0.35679  -0.11943
C          C       0.96690   0.04279   0.11322  -0.12161
C          C       0.53126   0.45107   0.61342  -0.11852
C          C       0.04460   0.53328   0.35485  -0.12545
C          C       0.45437   0.97152   0.86406  -0.11689
C          C       0.46717   0.54401   0.61890  -0.12151
C          C       0.02972   0.95162   0.11199  -0.11719
C          C       0.54019   0.00001   0.73686   0.06334
C          C       0.95632   0.50352   0.23199   0.06653
C          C       0.00156   0.03777   0.98976   0.05989
C          C       0.49666   0.45736   0.49098   0.06431
C          C       0.03885   0.49904   0.23125   0.05857
C          C       0.45773   0.00462   0.73562   0.06582
C          C       0.50212   0.53901   0.49668   0.06187
C          C       0.99595   0.95618   0.98533   0.06751
C          C       0.57113   0.96412   0.74209  -0.13554
C          C       0.92523   0.53930   0.23952  -0.13067
C          C       0.03880   0.06699  -0.00144  -0.13254
C          C       0.45916   0.42837   0.49704  -0.12698
C          C       0.06780   0.46157   0.23946  -0.13181
C          C       0.42618   0.04001   0.73810  -0.12902
C          C       0.53986   0.56753   0.50976  -0.13242
C          C       0.95931   0.92615   0.98892  -0.12958
C          C       0.60311   0.96083   0.87335  -0.14656
C          C       0.89252   0.54169   0.36887  -0.15535
C          C       0.04173   0.09954   0.12720  -0.15479
C          C       0.45592   0.39472   0.62134  -0.15618
C          C       0.10061   0.45801   0.36747  -0.15360
C          C       0.39297   0.04278   0.86572  -0.15589
C          C       0.54292   0.59928   0.64104  -0.15793
C          C       0.95582   0.89346   0.11644  -0.15505
C          C       0.89189   0.03768   0.61763  -0.18102
C          C       0.60780   0.45987   0.12183  -0.18484
C          C       0.96187   0.39337   0.86063  -0.18510
C          C       0.53819   0.10883   0.36610  -0.18525
C          C       0.39184   0.53688   0.12006  -0.18443
C          C       0.10704   0.95809   0.61723  -0.18678
C          C       0.46256   0.89232   0.37705  -0.18720
C          C       0.03571   0.60907   0.86337  -0.18454
C          C       0.92577   0.03522   0.74308  -0.14140
C          C       0.57354   0.46162   0.24650  -0.14540
C          C       0.96267   0.42729   0.98600  -0.14503
C          C       0.53581   0.07549   0.49252  -0.14106
C          C       0.42543   0.53502   0.24728  -0.14176
C          C       0.07302   0.96039   0.74282  -0.14626
C          C       0.46395   0.92695   0.49947  -0.14417
C          C       0.03455   0.57473   0.98604  -0.14002
C          C       0.95769   0.00017   0.74403   0.05589
C          C       0.54181   0.49685   0.25184   0.05610
C          C       0.99622   0.46069   0.98667   0.05447
C          C       0.50137   0.04303   0.49208   0.05235
C          C       0.45871   0.50120   0.24776   0.05346
C          C       0.04063   0.99501   0.74417   0.05180
C          C       0.49736   0.96047   0.49456   0.05353
C          C      -0.00069   0.54310   0.98981   0.05484
C          C       0.95334   0.96638   0.61889  -0.11949
C          C       0.54728   0.53183   0.13268  -0.11860
C          C       0.03071   0.45758   0.86258  -0.11699
C          C       0.46796   0.04645   0.36435  -0.11996
C          C       0.45584   0.46782   0.12029  -0.12066
C          C       0.04489   0.02878   0.61936  -0.11609
C          C       0.53098   0.95681   0.36738  -0.11885
C          C       0.96442   0.54790   0.86842  -0.11633
C          C       0.91909   0.96736   0.49769  -0.15095
C          C       0.58209   0.53159   0.01287  -0.14894
C          C       0.03160   0.42319   0.74253  -0.15207
C          C       0.46883   0.08005   0.24172  -0.15515
C          C       0.42194   0.46814  -0.00242  -0.15257
C          C       0.07933   0.02802   0.49820  -0.15317
C          C       0.53128   0.92180   0.24986  -0.15300
C          C       0.96417   0.58251   0.74976  -0.15157
C          C      -0.00101   0.99732   0.86523   0.01090
C          C       0.49976   0.49873   0.37121   0.01189
C          C       0.99758   0.50170   0.10923   0.01157
C          C       0.49912   0.00214   0.61383   0.01006
N          N       0.63547   0.98470   0.13869  -0.28707
N          N       0.85893   0.51584   0.63080  -0.27610
N          N       0.01529   0.13565   0.38228  -0.28602
N          N       0.48261   0.35730   0.87584  -0.28227
N          N       0.13723   0.48272   0.62321  -0.27502
N          N       0.35844   0.01741   0.12738  -0.27472
N          N       0.51638   0.63436   0.89772  -0.28635
N          N       0.98085   0.85898   0.37784  -0.27585
N          N       0.85626   0.00262   0.36112  -0.26294
N          N       0.64543   0.49645   0.87340  -0.26140
N          N      -0.00094   0.35939   0.60418  -0.26224
N          N       0.50358   0.14373   0.10870  -0.25892
N          N       0.35836   0.50133   0.85880  -0.26796
N          N       0.14358   0.99320   0.36393  -0.25895
N          N       0.49838   0.85669   0.12121  -0.26121
N          N       0.99803   0.64684   0.61765  -0.25824
Cl         Cl      0.73015   0.84683   0.24284  -0.08344
Cl         Cl      0.77009   0.65811   0.78956  -0.08791
Cl         Cl      0.15394   0.23154   0.47309  -0.08868
Cl         Cl      0.34341   0.26169   0.01540  -0.08558
Cl         Cl      0.23721   0.34658   0.71296  -0.08767
Cl         Cl      0.26553   0.15807   0.28773  -0.08613
Cl         Cl      0.65401   0.73101  -0.00250  -0.09321
Cl         Cl      0.83686   0.77178   0.53475  -0.08353
Cl         Cl      0.84974   0.19092   0.86808  -0.08140
Cl         Cl      0.65057   0.31069   0.35645  -0.08144
Cl         Cl      0.80485   0.34166   0.13343  -0.08583
Cl         Cl      0.69173   0.15117   0.59627  -0.08264
Cl         Cl      0.34502   0.69244   0.38644  -0.09345
Cl         Cl      0.14918   0.80971   0.83292  -0.08789
Cl         Cl      0.30619   0.84334   0.63898  -0.09095
Cl         Cl      0.18577   0.64941   0.11803  -0.06331
O          O       0.67529   0.06624   0.82399  -0.42951
O          O       0.82895   0.43118   0.31607  -0.43471
O          O       0.93990   0.17555   0.07813  -0.42916
O          O       0.56458   0.32892   0.57072  -0.43415
O          O       0.18186   0.55988   0.31972  -0.43462
O          O       0.33087   0.93341   0.81597  -0.43368
O          O       0.43613   0.67319   0.58596  -0.42772
O          O       0.06470   0.82907   0.06668  -0.43358
O          O       0.73348   0.94535   0.98234  -0.42311
O          O       0.77740   0.54903   0.52476  -0.47229
O          O       0.06031   0.24054   0.22508  -0.41443
O          O       0.44990   0.27478   0.76675  -0.46684
O          O       0.24278   0.43926   0.46630  -0.42026
O          O       0.27549   0.04731   0.02511  -0.46848
O          O       0.55802   0.73539   0.75000  -0.41444
O          O       0.94656   0.77962   0.26735  -0.47096

