data_crystal

_audit_creation_method 'AiiDA-DDEC plugin'

_cell_length_a        36.89922
_cell_length_b        37.07629
_cell_length_c         7.85729

_cell_angle_alpha     90.22322
_cell_angle_beta     89.65085
_cell_angle_gamma     120.27807

_symmetry_space_group_name_Hall 'P 1'
_symmetry_space_group_name_H-M  'P 1'

loop_
_symmetry_equiv_pos_as_xyz
 'x,y,z'

loop_
_atom_site_label
_atom_site_type_symbol
_atom_site_fract_x
_atom_site_fract_y
_atom_site_fract_z
_atom_site_charge
H          H       0.03457   0.07687   0.25458   0.10113
H          H       0.92161   0.95718   0.26255   0.10112
H          H       0.04171   0.96492   0.26157   0.10081
H          H       0.09009   0.09890   0.10327   0.10767
H          H       0.90013   0.99045   0.10099   0.10711
H          H       0.00958   0.90963   0.11408   0.10692
H          H       0.16766   0.14059   0.07596   0.12422
H          H       0.85750   0.02495   0.08214   0.12434
H          H       0.97433   0.83252   0.09052   0.12447
H          H       0.10044   0.00500   0.38264   0.10098
H          H       0.99435   0.09530   0.38178   0.10100
H          H       0.90231   0.89835   0.38133   0.10092
H          H       0.24979   0.05388   0.33265   0.12835
H          H       0.94474   0.19435   0.34156   0.12694
H          H       0.80204   0.74928   0.32881   0.12897
H          H       0.28212   0.18311   0.33213   0.12444
H          H       0.81345   0.09768   0.34279   0.12490
H          H       0.89952   0.71705   0.33649   0.12451
H          H       0.38596   0.14535   0.13315   0.12484
H          H       0.85526   0.23820   0.12349   0.12601
H          H       0.76068   0.61504   0.10367   0.12685
H          H       0.42079   0.27533   0.13771   0.13139
H          H       0.72458   0.14538   0.11486   0.13042
H          H       0.85542   0.58072   0.10683   0.13058
H          H       0.57017   0.33034   0.20873   0.09817
H          H       0.67092   0.24057   0.19009   0.09830
H          H       0.76255   0.43193   0.19587   0.09784
H          H       0.57352   0.22789   0.44822   0.11589
H          H       0.77373   0.34518   0.44038   0.11583
H          H       0.65516   0.42771   0.43462   0.11544
H          H       0.49662   0.18442   0.42166   0.12988
H          H       0.81605   0.31074   0.41598   0.13014
H          H       0.68805   0.50396   0.40157   0.13057
H          H       0.63407   0.25680   0.33335   0.10820
H          H       0.74558   0.37762   0.31929   0.10898
H          H       0.62436   0.36738   0.33563   0.10804
H          H       0.31891   0.23477   0.02792   0.10485
H          H       0.76482   0.08506   0.04006   0.10537
H          H       0.91372   0.67949   0.02122   0.10364
H          H       0.31192   0.25402   0.32789   0.09929
H          H       0.74066   0.05671   0.33633   0.09947
H          H       0.94160   0.68750   0.32235   0.10022
H          H       0.35272   0.28704   0.47300   0.11891
H          H       0.70947   0.06745   0.48109   0.11843
H          H       0.93298   0.64580   0.46253   0.11860
H          H       0.35069   0.09235   0.43900   0.10466
H          H       0.90812   0.25546   0.43411   0.10617
H          H       0.74468   0.65045   0.41622   0.10516
H          H       0.31290   0.03990   0.50028   0.12319
H          H       0.96089   0.27143   0.49736   0.12362
H          H       0.72733   0.68630   0.47349   0.12307
H          H       0.35633   0.07477   0.14668   0.10191
H          H       0.92496   0.27889   0.13210   0.10293
H          H       0.71839   0.64396   0.11194   0.10434
H          H       0.11301   0.96238   0.24300   0.11676
H          H       0.03584   0.14975   0.23578   0.11872
H          H       0.84723   0.88435   0.23414   0.11663
H          H       0.11483   0.89658   0.39717   0.11162
H          H       0.10352   0.21950   0.37389   0.11580
H          H       0.77790   0.88193   0.38078   0.11489
H          H       0.22418   0.01085   0.04344   0.09850
H          H       0.99268   0.21201   0.04917   0.09905
H          H       0.78287   0.77320   0.05061   0.09707
H          H       0.45609   0.34299   0.28980   0.12288
H          H       0.65386   0.11068   0.23614   0.12353
H          H       0.89043   0.54456   0.23800   0.12424
H          H       0.50672   0.42408   0.17229   0.11197
H          H       0.57550   0.08356   0.09394   0.11109
H          H       0.91726   0.49277   0.10159   0.11188
H          H       0.55601   0.34486   0.48107   0.08684
H          H       0.65510   0.20799   0.46540   0.08710
H          H       0.79488   0.44727   0.45358   0.08662
H          H       0.03333   0.07585   0.75131   0.10075
H          H       0.92054   0.95621   0.76370   0.10130
H          H       0.04064   0.96397   0.76734   0.10116
H          H       0.08839   0.09782   0.60185   0.10626
H          H       0.89861   0.98872   0.60336   0.10641
H          H       0.00836   0.90943   0.61596   0.10725
H          H       0.16577   0.14052   0.57450   0.12423
H          H       0.85647   0.02374   0.57993   0.12502
H          H       0.97330   0.83231   0.58837   0.12430
H          H       0.10056   0.00511   0.88153   0.10122
H          H       0.99345   0.09433   0.87921   0.10187
H          H       0.90065   0.89695   0.88444   0.10067
H          H       0.25039   0.05600   0.82928   0.12804
H          H       0.94519   0.19408   0.83090   0.12874
H          H       0.80143   0.74764   0.82822   0.12756
H          H       0.28270   0.18508   0.82524   0.12440
H          H       0.81434   0.09730   0.83403   0.12497
H          H       0.89932   0.71610   0.83219   0.12469
H          H       0.38525   0.14522   0.62809   0.12587
H          H       0.85485   0.23779   0.61797   0.12631
H          H       0.75968   0.61450   0.60397   0.12779
H          H       0.42208   0.27496   0.62538   0.13193
H          H       0.72488   0.14440   0.61798   0.12955
H          H       0.85445   0.58012   0.60259   0.13091
H          H       0.57079   0.32934   0.71399   0.09664
H          H       0.67088   0.23926   0.69229   0.09807
H          H       0.76201   0.43091   0.68708   0.09765
H          H       0.57269   0.22669   0.95759   0.11554
H          H       0.77442   0.34517   0.93277   0.11676
H          H       0.65602   0.42626   0.94079   0.11456
H          H       0.49567   0.18386   0.93010   0.12918
H          H       0.81697   0.31103   0.90761   0.12983
H          H       0.68808   0.50242   0.90658   0.13078
H          H       0.63390   0.25548   0.83417   0.10936
H          H       0.74557   0.37637   0.81589   0.10977
H          H       0.62446   0.36611   0.84198   0.10677
H          H       0.31653   0.23365   0.52834   0.10463
H          H       0.76289   0.08380   0.53241   0.10528
H          H       0.91553   0.68140   0.52288   0.10323
H          H       0.31346   0.25679   0.83329   0.09877
H          H       0.74463   0.05749   0.84323   0.10000
H          H       0.94134   0.68771   0.82306   0.10026
H          H       0.35560   0.28825   0.97555   0.12044
H          H       0.71134   0.06664   0.98239   0.11763
H          H       0.93252   0.64517   0.95863   0.11832
H          H       0.35168   0.09319   0.94190   0.10848
H          H       0.90824   0.25239   0.93135   0.10470
H          H       0.74598   0.65089   0.91473   0.10474
H          H       0.31566   0.04020   0.00491   0.12275
H          H       0.96095   0.27120   0.00532   0.12317
H          H       0.72739   0.68578   0.97159   0.12311
H          H       0.35328   0.07346   0.64610   0.10112
H          H       0.92682   0.27855   0.63954   0.10270
H          H       0.71793   0.64457   0.61494   0.10373
H          H       0.11364   0.96290   0.74833   0.11847
H          H       0.03531   0.14887   0.72763   0.11683
H          H       0.84366   0.88241   0.74738   0.11999
H          H       0.11724   0.89820   0.90331   0.11459
H          H       0.10303   0.21792   0.86998   0.11554
H          H       0.77271   0.87601   0.89598   0.11639
H          H       0.22145   0.00813   0.54983   0.09769
H          H       0.99332   0.21451   0.54828   0.09867
H          H       0.78376   0.77771   0.55025   0.09902
H          H       0.46010   0.34669   0.77155   0.12593
H          H       0.65428   0.10917   0.73587   0.12417
H          H       0.88970   0.54609   0.74098   0.12362
H          H       0.51518   0.42622   0.64791   0.11313
H          H       0.57600   0.08198   0.59328   0.11139
H          H       0.91966   0.49624   0.60971   0.11181
H          H       0.55342   0.34947   0.98042   0.08894
H          H       0.65546   0.20888   0.95802   0.08534
H          H       0.79210   0.44691   0.95839   0.08646
C          C       0.04358   0.02388   0.26238   0.08157
C          C       0.97511   0.01942   0.26192   0.08038
C          C       0.97920   0.95551   0.26516   0.08052
C          C       0.01914   0.04302   0.26154  -0.18022
C          C       0.95567   0.97577   0.26542  -0.17873
C          C       0.02304   0.98008   0.26536  -0.17907
C          C       0.08975   0.04871   0.24663   0.06292
C          C       0.95028   0.04046   0.24647   0.06289
C          C       0.95814   0.90952   0.25115   0.06256
C          C       0.13409   0.96194   0.33648  -0.13220
C          C       0.03730   0.17214   0.32780  -0.13594
C          C       0.82528   0.86364   0.32851  -0.13283
C          C       0.10939   0.08762   0.15964  -0.12503
C          C       0.91121   0.02081   0.15988  -0.12479
C          C       0.97841   0.89027   0.16821  -0.12353
C          C       0.13663   0.92976   0.40991  -0.03078
C          C       0.07037   0.20777   0.39400  -0.03050
C          C       0.78983   0.86086   0.39900  -0.03226
C          C       0.15233   0.11074   0.14190  -0.14764
C          C       0.88768   0.04000   0.14613  -0.14717
C          C       0.95893   0.84755   0.15217  -0.14839
C          C       0.17835   0.09577   0.20431   0.20220
C          C       0.90260   0.08094   0.21043   0.20250
C          C       0.91718   0.82133   0.21063   0.20286
C          C       0.19246   0.98568   0.48873   0.08560
C          C       0.01507   0.20765   0.48293   0.08164
C          C       0.79036   0.80618   0.48580   0.08263
C          C       0.15866   0.05519   0.28212  -0.03296
C          C       0.94368   0.10251   0.28504  -0.03327
C          C       0.89540   0.84052   0.28506  -0.03414
C          C       0.48295   0.35666   0.20516  -0.13900
C          C       0.64241   0.12603   0.15387  -0.13570
C          C       0.87517   0.51773   0.15478  -0.13891
C          C       0.11478   0.03368   0.30910  -0.17378
C          C       0.96544   0.08062   0.30924  -0.17388
C          C       0.91744   0.88423   0.31114  -0.17212
C          C       0.50896   0.39653   0.14692  -0.03033
C          C       0.60385   0.11383   0.08475  -0.03166
C          C       0.88722   0.49102   0.08853  -0.02977
C          C       0.18571   0.03953   0.32582   0.15804
C          C       0.95940   0.14527   0.32942   0.15616
C          C       0.85217   0.81310   0.32590   0.15851
C          C       0.22843   0.06492   0.30258  -0.26689
C          C       0.93358   0.16192   0.31059  -0.26589
C          C       0.83494   0.77064   0.30144  -0.26602
C          C       0.53541   0.36028   0.05074   0.07207
C          C       0.64279   0.17854   0.01675   0.07005
C          C       0.82264   0.46513   0.01611   0.06998
C          C       0.24487   0.10582   0.23761   0.24822
C          C       0.89224   0.13687   0.24821   0.25031
C          C       0.86019   0.75472   0.23845   0.25106
C          C       0.29070   0.13470   0.23113  -0.03433
C          C       0.86354   0.15385   0.23939  -0.03659
C          C       0.84351   0.70917   0.22628  -0.03808
C          C       0.30547   0.17568   0.28725  -0.24058
C          C       0.82195   0.12834   0.29432  -0.23950
C          C       0.86938   0.69420   0.28401  -0.23877
C          C       0.34815   0.20515   0.29054   0.18907
C          C       0.79296   0.14201   0.29112   0.18833
C          C       0.85655   0.65183   0.27924   0.18756
C          C       0.37736   0.19365   0.23514  -0.03394
C          C       0.80537   0.18228   0.22926  -0.03522
C          C       0.81665   0.62314   0.21417  -0.03433
C          C       0.36258   0.15280   0.17735  -0.23809
C          C       0.84679   0.20763   0.17277  -0.23705
C          C       0.79096   0.63806   0.15456  -0.23731
C          C       0.31988   0.12326   0.17480   0.18996
C          C       0.87594   0.19420   0.17802   0.19012
C          C       0.80374   0.68047   0.15973   0.18973
C          C       0.42322   0.22234   0.24116   0.24567
C          C       0.77711   0.19985   0.22952   0.24914
C          C       0.79969   0.57748   0.21590   0.24774
C          C       0.48873   0.23228   0.30355   0.20032
C          C       0.76802   0.25576   0.29134   0.19961
C          C       0.74412   0.51214   0.28117   0.20240
C          C       0.50995   0.27486   0.24582  -0.03537
C          C       0.72573   0.23494   0.22866  -0.03709
C          C       0.76598   0.49140   0.22393  -0.03735
C          C       0.48387   0.29039   0.18667   0.15071
C          C       0.70999   0.19350   0.16484   0.15108
C          C       0.80753   0.51754   0.15944   0.15053
C          C       0.44096   0.26414   0.18444  -0.25479
C          C       0.73568   0.17642   0.16600  -0.25508
C          C       0.82412   0.56023   0.15686  -0.25421
C          C       0.55411   0.29865   0.25742  -0.18554
C          C       0.70252   0.25572   0.24057  -0.18557
C          C       0.74625   0.44759   0.24154  -0.18681
C          C       0.57756   0.28272   0.32792   0.06615
C          C       0.71885   0.29495   0.31468   0.06609
C          C       0.70675   0.42398   0.31466   0.06520
C          C       0.55606   0.24083   0.38832  -0.11434
C          C       0.76060   0.31495   0.37780  -0.11464
C          C       0.68566   0.44506   0.37255  -0.11390
C          C       0.51314   0.21638   0.37485  -0.14165
C          C       0.78439   0.29599   0.36532  -0.14142
C          C       0.70371   0.48763   0.35509  -0.14145
C          C       0.62378   0.30893   0.33521   0.08008
C          C       0.69296   0.31503   0.32687   0.08077
C          C       0.68723   0.37807   0.32828   0.08039
C          C       0.64901   0.29065   0.33347  -0.17844
C          C       0.71156   0.35864   0.32582  -0.17879
C          C       0.64346   0.35269   0.33482  -0.17825
C          C       0.33410   0.25516   0.42376  -0.18794
C          C       0.74107   0.07926   0.42895  -0.18834
C          C       0.91995   0.66473   0.41615  -0.18717
C          C       0.33411   0.07259   0.04880  -0.18834
C          C       0.92798   0.25754   0.04328  -0.18699
C          C       0.74047   0.66710   0.02027  -0.18913
C          C       0.04263   0.02302   0.76264   0.08159
C          C       0.97404   0.01840   0.76156   0.08047
C          C       0.97813   0.95463   0.76840   0.08088
C          C       0.01807   0.04205   0.76018  -0.17923
C          C       0.95459   0.97482   0.76691  -0.17952
C          C       0.02204   0.97921   0.76865  -0.17965
C          C       0.08885   0.04813   0.74567   0.06092
C          C       0.94916   0.03929   0.74525   0.06290
C          C       0.95686   0.90863   0.75467   0.06309
C          C       0.13533   0.96310   0.84031  -0.13490
C          C       0.03679   0.17087   0.82175  -0.13473
C          C       0.82202   0.86055   0.83968  -0.13668
C          C       0.10804   0.08698   0.65824  -0.12159
C          C       0.90992   0.01939   0.65989  -0.12261
C          C       0.97725   0.88973   0.67011  -0.12303
C          C       0.13880   0.93148   0.91393  -0.03168
C          C       0.06986   0.20613   0.89030  -0.03024
C          C       0.78582   0.85583   0.91094  -0.03161
C          C       0.15094   0.11062   0.64000  -0.14903
C          C       0.88667   0.03880   0.64383  -0.14866
C          C       0.95791   0.84710   0.65204  -0.14836
C          C       0.17752   0.09619   0.70111   0.20319
C          C       0.90198   0.08003   0.70542   0.20364
C          C       0.91626   0.82061   0.71093   0.20253
C          C       0.19475   0.98805   0.98631   0.08134
C          C       0.01455   0.20562   0.98192   0.08074
C          C       0.78854   0.80180   0.99022   0.07996
C          C       0.15836   0.05570   0.77978  -0.03471
C          C       0.94291   0.10148   0.78099  -0.03521
C          C       0.89424   0.83945   0.78694  -0.03335
C          C       0.48727   0.35834   0.68914  -0.13790
C          C       0.64276   0.12467   0.65479  -0.13783
C          C       0.87560   0.51911   0.65812  -0.13815
C          C       0.11446   0.03371   0.80754  -0.17266
C          C       0.96446   0.07951   0.80717  -0.17390
C          C       0.91608   0.88315   0.81401  -0.17267
C          C       0.51543   0.39742   0.62854  -0.03036
C          C       0.60417   0.11241   0.58587  -0.03109
C          C       0.88916   0.49341   0.59432  -0.03054
C          C       0.18606   0.04080   0.82396   0.15823
C          C       0.95900   0.14437   0.82335   0.15816
C          C       0.85106   0.81164   0.82824   0.15718
C          C       0.22865   0.06658   0.79887  -0.26735
C          C       0.93369   0.16149   0.80167  -0.26605
C          C       0.83425   0.76933   0.80127  -0.26726
C          C       0.53895   0.35769   0.54470   0.06924
C          C       0.64269   0.17740   0.52152   0.07162
C          C       0.82480   0.46584   0.51571   0.07089
C          C       0.24451   0.10724   0.73207   0.25082
C          C       0.89245   0.13659   0.73804   0.25120
C          C       0.85969   0.75382   0.73730   0.25093
C          C       0.29041   0.13613   0.72388  -0.03568
C          C       0.86388   0.15361   0.72945  -0.03629
C          C       0.84312   0.70835   0.72464  -0.03758
C          C       0.30572   0.17719   0.78029  -0.23990
C          C       0.82261   0.12803   0.78722  -0.24088
C          C       0.86904   0.69333   0.78062  -0.23946
C          C       0.34859   0.20620   0.78419   0.19002
C          C       0.79373   0.14176   0.78886   0.18872
C          C       0.85609   0.65094   0.77506   0.18923
C          C       0.37752   0.19412   0.73033  -0.03331
C          C       0.80583   0.18196   0.72734  -0.03466
C          C       0.81586   0.62226   0.71252  -0.03380
C          C       0.36219   0.15323   0.67143  -0.23689
C          C       0.84688   0.20732   0.66698  -0.23547
C          C       0.79010   0.63730   0.65456  -0.23778
C          C       0.31928   0.12420   0.66773   0.18959
C          C       0.87602   0.19387   0.66813   0.18822
C          C       0.80325   0.67981   0.65888   0.18962
C          C       0.42354   0.22242   0.73871   0.24618
C          C       0.77750   0.19933   0.72906   0.24568
C          C       0.79892   0.57658   0.71500   0.24570
C          C       0.48849   0.23179   0.80872   0.20202
C          C       0.76858   0.25534   0.78862   0.20074
C          C       0.74392   0.51101   0.78216   0.20050
C          C       0.51021   0.27425   0.74987  -0.03753
C          C       0.72607   0.23415   0.72822  -0.03591
C          C       0.76571   0.49040   0.72198  -0.03667
C          C       0.48483   0.29000   0.68447   0.15072
C          C       0.71012   0.19249   0.66690   0.15036
C          C       0.80718   0.51691   0.65716   0.14979
C          C       0.44192   0.26407   0.67875  -0.25455
C          C       0.73588   0.17551   0.66814  -0.25411
C          C       0.82332   0.55953   0.65397  -0.25497
C          C       0.55431   0.29779   0.76377  -0.18732
C          C       0.70271   0.25473   0.74036  -0.18767
C          C       0.74600   0.44648   0.73730  -0.18400
C          C       0.57746   0.28162   0.83495   0.06766
C          C       0.71910   0.29413   0.81247   0.06658
C          C       0.70687   0.42278   0.81373   0.06627
C          C       0.55554   0.23983   0.89636  -0.11497
C          C       0.76113   0.31465   0.87250  -0.11608
C          C       0.68608   0.44378   0.87562  -0.11538
C          C       0.51254   0.21573   0.88244  -0.14155
C          C       0.78506   0.29587   0.85963  -0.14077
C          C       0.70380   0.48631   0.85841  -0.13999
C          C       0.62378   0.30764   0.83944   0.08042
C          C       0.69296   0.31385   0.82564   0.07975
C          C       0.68727   0.37685   0.82772   0.08112
C          C       0.64900   0.28935   0.83452  -0.17901
C          C       0.71157   0.35744   0.82368  -0.17958
C          C       0.64354   0.35142   0.83828  -0.17834
C          C       0.33604   0.25672   0.92399  -0.18843
C          C       0.74339   0.07956   0.93369  -0.18881
C          C       0.91930   0.66398   0.91315  -0.18741
C          C       0.33211   0.07213   0.54517  -0.18570
C          C       0.92839   0.25818   0.54115  -0.18873
C          C       0.73998   0.66721   0.52182  -0.18846
N          N       0.17018   0.99849   0.38784  -0.00164
N          N       0.00111   0.17163   0.38559  -0.00124
N          N       0.82596   0.82824   0.38476  -0.00242
N          N       0.50014   0.33307   0.14454   0.01900
N          N       0.66778   0.16810   0.11141   0.02203
N          N       0.83321   0.50097   0.10893   0.02218
N          N       0.17282   0.94475   0.50525  -0.30465
N          N       0.05635   0.22952   0.49127  -0.30362
N          N       0.76850   0.82531   0.49766  -0.30495
N          N       0.54128   0.39850   0.04988  -0.31415
N          N       0.60441   0.14653  -0.00176  -0.31339
N          N       0.85450   0.45857   0.00134  -0.31342
N          N       0.22064   0.12075   0.18591  -0.34959
N          N       0.87724   0.09764   0.19587  -0.35111
N          N       0.90005   0.77933   0.19119  -0.34951
N          N       0.44629   0.20661   0.29863  -0.34668
N          N       0.79314   0.23860   0.28914  -0.34733
N          N       0.76061   0.55428   0.27446  -0.34772
N          N       0.17144   0.00009   0.88785   0.00043
N          N       0.00062   0.17016   0.88127  -0.00167
N          N       0.82419   0.82562   0.89118  -0.00124
N          N       0.50250   0.33247   0.63596   0.01743
N          N       0.66786   0.16694   0.61471   0.02480
N          N       0.83375   0.50121   0.60872   0.02233
N          N       0.17564   0.94722   0.00543  -0.30324
N          N       0.05583   0.22739   0.99072  -0.30440
N          N       0.76537   0.81946   0.00542  -0.30332
N          N       0.54731   0.39672   0.53785  -0.31323
N          N       0.60442   0.14528   0.50198  -0.31350
N          N       0.85753   0.46054   0.50472  -0.31486
N          N       0.21977   0.12161   0.68090  -0.35161
N          N       0.87711   0.09718   0.68771  -0.35049
N          N       0.89951   0.77869   0.69034  -0.34925
N          N       0.44598   0.20647   0.80130  -0.34631
N          N       0.79377   0.23829   0.78645  -0.34679
N          N       0.76012   0.55314   0.77612  -0.34562
O          O       0.36383   0.24537   0.35068  -0.17104
O          O       0.75215   0.11830   0.34983  -0.17238
O          O       0.88047   0.63571   0.34089  -0.17188
O          O       0.30421   0.08287   0.11650  -0.17169
O          O       0.91695   0.21851   0.12306  -0.17288
O          O       0.77937   0.69627   0.10010  -0.17369
O          O       0.36471   0.24662   0.84244  -0.17307
O          O       0.75337   0.11803   0.85170  -0.17212
O          O       0.88050   0.63503   0.83298  -0.17258
O          O       0.30291   0.08380   0.60849  -0.17129
O          O       0.91670   0.21783   0.60871  -0.17189
O          O       0.77926   0.69605   0.59958  -0.17288

