data_crystal

_audit_creation_method 'AiiDA-DDEC plugin'

_cell_length_a        20.96067
_cell_length_b        20.98927
_cell_length_c         7.78523

_cell_angle_alpha     87.44743
_cell_angle_beta     116.02489
_cell_angle_gamma     119.97388

_symmetry_space_group_name_Hall 'P 1'
_symmetry_space_group_name_H-M  'P 1'

loop_
_symmetry_equiv_pos_as_xyz
 'x,y,z'

loop_
_atom_site_label
_atom_site_type_symbol
_atom_site_fract_x
_atom_site_fract_y
_atom_site_fract_z
_atom_site_charge
H          H       0.38032   0.37327   0.02132   0.16200
H          H       0.61527   0.99776   0.97615   0.16331
H          H       0.99798   0.61732   0.03775   0.16434
H          H       0.61377   0.61859   0.99055   0.16187
H          H       0.37547   0.99212   0.01906   0.16195
H          H       0.99524   0.37403   0.97269   0.16364
H          H       0.46520   0.72661   0.99529   0.13093
H          H       0.26553   0.73492   0.00583   0.13141
H          H       0.25979   0.52650   0.01410   0.13262
H          H       0.52586   0.26354   0.00396   0.12828
H          H       0.72544   0.25562   0.99076   0.13226
H          H       0.73529   0.46557   0.00530   0.13223
H          H       0.38631   0.38122   0.51721   0.16181
H          H       0.62343   0.00689   0.48201   0.16331
H          H       0.00508   0.62557   0.53637   0.16346
H          H       0.62150   0.62718   0.49391   0.16176
H          H       0.38079   0.00014   0.51195   0.16346
H          H       0.00186   0.38210   0.46916   0.16445
H          H       0.47376   0.73567   0.50101   0.13113
H          H       0.27081   0.74250   0.49707   0.13146
H          H       0.26682   0.53495   0.51234   0.13199
H          H       0.53295   0.27213   0.50370   0.13059
H          H       0.73257   0.26416   0.49089   0.13226
H          H       0.74147   0.47384   0.50156   0.13260
C          C       0.42939   0.49192   0.00696   0.13688
C          C       0.49798   0.93063   0.98992   0.13443
C          C       0.06303   0.56460   0.01964   0.13224
C          C       0.56463   0.49981   0.00451   0.13653
C          C       0.49293   0.05925   0.00601   0.13303
C          C       0.93017   0.42670   0.99147   0.12865
C          C       0.42946   0.42508   0.01344  -0.24200
C          C       0.56469   0.99658   0.98630  -0.24448
C          C       0.99739   0.56581   0.02366  -0.23407
C          C       0.56454   0.56668  -0.00205  -0.24144
C          C       0.42613   0.99331   0.00927  -0.24528
C          C       0.99592   0.42553   0.98769  -0.23262
C          C       0.49861   0.43264   0.01168   0.15660
C          C       0.55874   0.05908   0.99524   0.15362
C          C       0.93274   0.49514   0.00864   0.15315
C          C       0.49521   0.55906  -0.00089   0.15862
C          C       0.43230   0.93094   0.00114   0.15452
C          C       0.06051   0.49616   0.00251   0.15480
C          C       0.40186   0.57764   0.00287   0.33175
C          C       0.41329   0.81849  -0.00331   0.33319
C          C       0.17511   0.59136   0.01469   0.32799
C          C       0.59152   0.41368   0.00728   0.33091
C          C       0.57766   0.17155   0.00006   0.33468
C          C       0.81777   0.39996   0.99450   0.32564
C          C       0.36630   0.62165   0.00485  -0.00421
C          C       0.37042   0.73932   0.00197   0.00133
C          C       0.25433   0.62707   0.01145   0.00335
C          C       0.62634   0.36929   0.00271  -0.00314
C          C       0.62072   0.25096  -0.00308   0.00122
C          C       0.73816   0.36404   0.99533   0.00459
C          C       0.40654   0.69824   0.00091  -0.11501
C          C       0.29448   0.70395   0.00689  -0.11389
C          C       0.29000   0.58588   0.00989  -0.12053
C          C       0.58487   0.29212   0.00015  -0.11467
C          C       0.69692   0.28659   0.99344  -0.11603
C          C       0.70348   0.40552   0.00183  -0.12266
C          C       0.43629   0.50021   0.50684   0.13830
C          C       0.50493   0.93937   0.48998   0.13158
C          C       0.06995   0.57281   0.51698   0.12960
C          C       0.57153   0.50805   0.50420   0.13757
C          C       0.49903   0.06760   0.50240   0.13423
C          C       0.93676   0.43480   0.48734   0.13068
C          C       0.43592   0.43316   0.51115  -0.24056
C          C       0.57207   0.00547   0.48838  -0.24576
C          C       0.00436   0.57403   0.52120  -0.23328
C          C       0.57186   0.57511   0.49955  -0.24317
C          C       0.43185   0.00148   0.50393  -0.24677
C          C       0.00251   0.43363   0.48390  -0.23268
C          C       0.50501   0.44066   0.50909   0.15682
C          C       0.56549   0.06769   0.49447   0.15640
C          C       0.93959   0.50337   0.50555   0.15453
C          C       0.50262   0.56750   0.50110   0.15706
C          C       0.43831   0.93918   0.49722   0.15585
C          C       0.06734   0.50434   0.49951   0.15311
C          C       0.40958   0.58639   0.50537   0.32851
C          C       0.42017   0.82704   0.49558   0.33385
C          C       0.18199   0.59962   0.51201   0.32682
C          C       0.59808   0.42182   0.50499   0.33071
C          C       0.58438   0.18009   0.49898   0.33539
C          C       0.82468   0.40824   0.49201   0.32879
C          C       0.37404   0.63048   0.50654  -0.00077
C          C       0.37745   0.74785   0.50073   0.00253
C          C       0.26116   0.63540   0.50865   0.00400
C          C       0.63330   0.37771   0.50152  -0.00190
C          C       0.62774   0.25950   0.49639   0.00040
C          C       0.74519   0.37252   0.49395   0.00328
C          C       0.41442   0.70712   0.50335  -0.11887
C          C       0.30081   0.71209   0.50225  -0.11514
C          C       0.29720   0.59441   0.50897  -0.12271
C          C       0.59199   0.30066   0.49989  -0.11578
C          C       0.70401   0.29516   0.49295  -0.11435
C          C       0.71032   0.41394   0.49992  -0.12229
N          N       0.37192   0.50641   0.00883  -0.37960
N          N       0.48301   0.85817   0.98669  -0.38020
N          N       0.13665   0.62316   0.02689  -0.38327
N          N       0.62193   0.48506   0.00250  -0.37839
N          N       0.50779   0.13166   0.00930  -0.38138
N          N       0.85633   0.36814   0.98313  -0.37872
N          N       0.37895   0.51488   0.50888  -0.37932
N          N       0.49053   0.86714   0.48854  -0.37998
N          N       0.14357   0.63139   0.52430  -0.38003
N          N       0.62895   0.49342   0.50262  -0.37988
N          N       0.51401   0.14006   0.50603  -0.38233
N          N       0.86284   0.37625   0.47905  -0.38144
O          O       0.47723   0.61428  -0.00398  -0.17977
O          O       0.37779   0.85864   0.00532  -0.17316
O          O       0.13309   0.51366   0.00069  -0.17670
O          O       0.51613   0.37717   0.01360  -0.17975
O          O       0.61337   0.13152   0.99185  -0.17419
O          O       0.86001   0.47769   0.00939  -0.17757
O          O       0.48529   0.62303   0.50038  -0.17899
O          O       0.38363   0.86671   0.50021  -0.17470
O          O       0.14007   0.52193   0.49837  -0.17823
O          O       0.52213   0.38502   0.50897  -0.17813
O          O       0.62045   0.14022   0.49245  -0.17405
O          O       0.86713   0.48600   0.50770  -0.17701

