data_crystal

_audit_creation_method 'AiiDA-DDEC plugin'

_cell_length_a        21.14440
_cell_length_b        21.18077
_cell_length_c         7.74805

_cell_angle_alpha     96.24612
_cell_angle_beta     117.66643
_cell_angle_gamma     59.60643

_symmetry_space_group_name_Hall 'P 1'
_symmetry_space_group_name_H-M  'P 1'

loop_
_symmetry_equiv_pos_as_xyz
 'x,y,z'

loop_
_atom_site_label
_atom_site_type_symbol
_atom_site_fract_x
_atom_site_fract_y
_atom_site_fract_z
_atom_site_charge
H          H       0.98933   0.38073   0.13287   0.16348
H          H       0.02947   0.59763   0.39144   0.16573
H          H       0.39241   0.99280   0.27615   0.15718
H          H       0.62268   0.37733   0.21725   0.16276
H          H       0.62682   0.99523   0.23989   0.16512
H          H       0.37774   0.61680   0.22611   0.16491
H          H       0.29464   0.49897   0.24407   0.35640
H          H       0.78266   0.49783   0.16792   0.33207
H          H       0.50747   0.28953   0.23323   0.32674
H          H       0.50701   0.79009   0.26153   0.34982
H          H       0.30681   0.19788   0.26344   0.32284
H          H       0.81631   0.69223   0.31503   0.35067
H          H       0.98065   0.39320   0.63461   0.16402
H          H       0.02256   0.60886   0.89872   0.16527
H          H       0.38393   0.00574   0.77435   0.15862
H          H       0.61235   0.39123   0.70910   0.16304
H          H       0.61841   0.00892   0.74034   0.16439
H          H       0.36897   0.63033   0.72554   0.16598
H          H       0.28481   0.51225   0.73934   0.35744
H          H       0.77636   0.50928   0.68037   0.33208
H          H       0.49739   0.30318   0.72795   0.32638
H          H       0.49838   0.80384   0.75929   0.34867
H          H       0.29809   0.21090   0.76213   0.32249
H          H       0.80638   0.70583   0.80210   0.35416
C          C       0.06729   0.42976   0.22853   0.15781
C          C       0.49601   0.56421   0.21861   0.13140
C          C       0.99751   0.42689   0.18722  -0.23866
C          C       0.56330   0.49694   0.21757   0.16194
C          C       0.93760   0.49015   0.21978   0.13179
C          C       0.95127   0.54895   0.28950   0.14843
C          C       0.02080   0.55197   0.33389  -0.23674
C          C       0.50389   0.43009   0.22220   0.13081
C          C       0.08022   0.48905   0.29954   0.12894
C          C       0.43705   0.49744   0.22332   0.14541
C          C       0.18681   0.40793   0.26758   0.37655
C          C       0.44307   0.05862   0.25828   0.13598
C          C       0.50900   0.05741   0.24954   0.14997
C          C       0.82889   0.57500   0.24627   0.35506
C          C       0.44197   0.99332   0.26770  -0.25592
C          C       0.26483   0.36691   0.25963  -0.26647
C          C       0.57060   0.42804   0.21855  -0.24524
C          C       0.75012   0.61920   0.24536  -0.32380
C          C       0.57733   0.99481   0.24891  -0.23658
C          C       0.30375   0.40494   0.25744   0.33614
C          C       0.42911   0.56629   0.22148  -0.24604
C          C       0.37929   0.36732   0.24615  -0.32451
C          C       0.41855   0.28942   0.24315   0.33907
C          C       0.38169   0.25000   0.24852  -0.28773
C          C       0.30468   0.28923   0.25586   0.33215
C          C       0.70209   0.58582   0.21248   0.33008
C          C       0.62631   0.62522   0.22245  -0.25181
C          C       0.59499   0.70162   0.24344   0.32509
C          C       0.63913   0.73757   0.26279  -0.29724
C          C       0.71897   0.69418   0.27418   0.32877
C          C       0.41925   0.40411   0.23790   0.36186
C          C       0.41906   0.17124   0.25012   0.38094
C          C       0.60547   0.81648   0.26709   0.36480
C          C       0.58114   0.59031   0.21478   0.38015
C          C       0.57637   0.92963   0.25852   0.13215
C          C       0.51073   0.93061   0.26805   0.16201
C          C       0.05919   0.44176   0.73238   0.15884
C          C       0.48685   0.57773   0.71678   0.13135
C          C       0.98941   0.43891   0.69145  -0.23938
C          C       0.55368   0.51063   0.71351   0.16287
C          C       0.93013   0.50180   0.72684   0.12993
C          C       0.94398   0.56049   0.79678   0.14688
C          C       0.01361   0.56334   0.84122  -0.23925
C          C       0.49419   0.44368   0.71739   0.13107
C          C       0.07271   0.50059   0.80591   0.13345
C          C       0.42775   0.51095   0.72060   0.14615
C          C       0.17831   0.42034   0.76929   0.37929
C          C       0.43429   0.07197   0.75645   0.14042
C          C       0.50030   0.07086   0.74840   0.14900
C          C       0.82144   0.58697   0.75258   0.35744
C          C       0.43338   0.00659   0.76621  -0.25947
C          C       0.25580   0.37995   0.75886  -0.27074
C          C       0.56067   0.44176   0.71277  -0.24689
C          C       0.74227   0.63172   0.74928  -0.32930
C          C       0.56882   0.00830   0.74831  -0.23482
C          C       0.29386   0.41840   0.75332   0.34127
C          C       0.42005   0.57975   0.72006  -0.24384
C          C       0.36950   0.38099   0.74226  -0.32437
C          C       0.40897   0.30302   0.74028   0.34205
C          C       0.37250   0.26340   0.74671  -0.29168
C          C       0.29576   0.30233   0.75519   0.33305
C          C       0.69438   0.59838   0.71751   0.32916
C          C       0.61787   0.63844   0.72392  -0.25035
C          C       0.58674   0.71490   0.74394   0.32153
C          C       0.63088   0.75077   0.76230  -0.29252
C          C       0.71051   0.70732   0.77205   0.32697
C          C       0.40931   0.41782   0.73278   0.36261
C          C       0.41018   0.18460   0.74850   0.38317
C          C       0.59711   0.82979   0.76582   0.36754
C          C       0.57205   0.60387   0.71376   0.38040
C          C       0.56804   0.94301   0.75801   0.12845
C          C       0.50235   0.94395   0.76715   0.16093
N          N       0.49021   0.37310   0.23224  -0.39814
N          N       0.38770   0.13161   0.25871  -0.40636
N          N       0.15579   0.47303   0.32209  -0.37770
N          N       0.86000   0.50883   0.19579  -0.39871
N          N       0.63318   0.85798   0.25678  -0.35120
N          N       0.50952   0.62126   0.21570  -0.37062
N          N       0.47997   0.38682   0.72548  -0.39938
N          N       0.37878   0.14494   0.75641  -0.40679
N          N       0.14804   0.48478   0.82733  -0.38020
N          N       0.85257   0.52062   0.70329  -0.39545
N          N       0.62484   0.87133   0.75607  -0.35090
N          N       0.50067   0.63475   0.71571  -0.37199
O          O       0.61796   0.51328   0.21512  -0.16717
O          O       0.13562   0.37756   0.20832  -0.16501
O          O       0.38264   0.48063   0.23185  -0.19111
O          O       0.88168   0.60311   0.30643  -0.19294
O          O       0.49312   0.12927   0.24369  -0.14490
O          O       0.26702   0.47774   0.26790  -0.39587
O          O       0.72927   0.51651   0.17402  -0.38659
O          O       0.49037   0.25260   0.23657  -0.39418
O          O       0.52162   0.73862   0.24420  -0.38672
O          O       0.26988   0.25294   0.26553  -0.39367
O          O       0.76257   0.72767   0.31080  -0.39267
O          O       0.52889   0.85776   0.27526  -0.21793
O          O       0.60822   0.52707   0.71098  -0.16529
O          O       0.12678   0.39018   0.70862  -0.16802
O          O       0.37324   0.49416   0.72891  -0.19349
O          O       0.87444   0.61484   0.81340  -0.19464
O          O       0.48437   0.14274   0.74275  -0.14322
O          O       0.25626   0.49145   0.76042  -0.39790
O          O       0.72229   0.52848   0.68355  -0.38974
O          O       0.48054   0.26618   0.73267  -0.39513
O          O       0.51290   0.75234   0.74282  -0.39049
O          O       0.26128   0.26585   0.76548  -0.39364
O          O       0.75297   0.74122   0.79962  -0.39202
O          O       0.52039   0.87114   0.77376  -0.21826

