data_crystal

_audit_creation_method 'AiiDA-DDEC plugin'

_cell_length_a        20.46671
_cell_length_b        21.32039
_cell_length_c         7.71767

_cell_angle_alpha     89.52172
_cell_angle_beta     116.26900
_cell_angle_gamma     118.51977

_symmetry_space_group_name_Hall 'P 1'
_symmetry_space_group_name_H-M  'P 1'

loop_
_symmetry_equiv_pos_as_xyz
 'x,y,z'

loop_
_atom_site_label
_atom_site_type_symbol
_atom_site_fract_x
_atom_site_fract_y
_atom_site_fract_z
_atom_site_charge
H          H       0.37443   0.38400   0.27265   0.16077
H          H       0.62680   0.60638   0.25925   0.16601
H          H       0.27710   0.54176   0.27200   0.13356
H          H       0.72620   0.45436   0.24870   0.13486
H          H       0.00379   0.37896   0.22459   0.15997
H          H       0.37507  -0.00026   0.24830   0.16382
H          H       0.99586   0.61440   0.27471   0.16437
H          H       0.62228   0.99263   0.25167   0.16189
H          H       0.78818   0.28074   0.20727   0.35808
H          H       0.29237   0.79688   0.26861   0.32903
H          H       0.51462   0.79819   0.27635   0.34937
H          H       0.48895   0.28239   0.24440   0.32984
H          H       0.38191   0.39229   0.77610   0.16013
H          H       0.63486   0.61497   0.76529   0.16643
H          H       0.28499   0.54960   0.77845   0.13418
H          H       0.73318   0.46169   0.75173   0.13463
H          H       0.00968   0.38515   0.72340   0.15952
H          H       0.37855   0.00572   0.74034   0.16415
H          H       0.00284   0.62089   0.78049   0.16367
H          H       0.62939   0.00082   0.75834   0.16201
H          H       0.79520   0.28787   0.71538   0.35985
H          H       0.29581   0.80262   0.75816   0.32984
H          H       0.52063   0.80589   0.77689   0.34890
H          H       0.49633   0.29065   0.75128   0.32891
C          C       0.43805   0.50031   0.26971   0.15810
C          C       0.42784   0.43099   0.26922  -0.25037
C          C       0.06836   0.49798   0.25196   0.13863
C          C       0.49421   0.42759   0.26565   0.13142
C          C       0.06379   0.56199   0.26526   0.15612
C          C       0.56358   0.49062   0.26472   0.15036
C          C       0.57387   0.55953   0.26458  -0.24110
C          C       0.50757   0.56274   0.26705   0.12877
C          C       0.93131   0.49539   0.24867   0.12962
C          C       0.93587   0.43147   0.23513   0.15484
C          C       0.42618   0.59751   0.27398   0.36082
C          C       0.56488   0.05756   0.24452   0.13761
C          C       0.57884   0.39634   0.25330   0.35263
C          C       0.49568   0.05790   0.24390   0.16236
C          C       0.38478   0.63651   0.27665  -0.13625
C          C       0.00216   0.42885   0.23542  -0.24390
C          C       0.61917   0.35798   0.24293  -0.18081
C          C       0.42706   0.99794   0.24764  -0.24429
C          C       0.42170   0.71237   0.27706   0.31415
C          C       0.99727   0.56438   0.26439  -0.22848
C          C       0.37872   0.74903   0.27447  -0.30603
C          C       0.56997   0.99416   0.25129  -0.24398
C          C       0.29907   0.71010   0.27415   0.31414
C          C       0.26291   0.63444   0.27405  -0.14960
C          C       0.30665   0.60000   0.27445  -0.06795
C          C       0.58040   0.28122   0.23625   0.30997
C          C       0.62127   0.24335   0.23044  -0.23199
C          C       0.69973   0.28378   0.22626   0.29649
C          C       0.73724   0.36020   0.23261  -0.18169
C          C       0.69612   0.39572   0.24153  -0.06281
C          C       0.81729   0.40573   0.23365   0.33878
C          C       0.58678   0.16603   0.23294   0.37612
C          C       0.41172   0.82507   0.26799   0.35186
C          C       0.18179   0.58885   0.26915   0.35521
C          C       0.43204   0.93447   0.25413   0.13329
C          C       0.50162   0.93492   0.25576   0.15045
C          C       0.44529   0.50848   0.77198   0.15865
C          C       0.43513   0.43920   0.77180  -0.25016
C          C       0.07436   0.50430   0.75074   0.13411
C          C       0.50158   0.43585   0.76879   0.13200
C          C       0.07014   0.56839   0.76607   0.15639
C          C       0.57087   0.49880   0.76729   0.14923
C          C       0.58151   0.56790   0.76863  -0.24088
C          C       0.51525   0.57116   0.77148   0.12976
C          C       0.93780   0.50175   0.75034   0.13409
C          C       0.94192   0.43764   0.73523   0.15509
C          C       0.43392   0.60581   0.77936   0.36000
C          C       0.57073   0.06495   0.74696   0.13898
C          C       0.58618   0.40444   0.75742   0.35300
C          C       0.50057   0.06480   0.74216   0.16296
C          C       0.39206   0.64444   0.78090  -0.13593
C          C       0.00809   0.43504   0.73444  -0.23910
C          C       0.62615   0.36573   0.74681  -0.18077
C          C       0.43134   0.00445   0.74271  -0.24431
C          C       0.42821   0.72004   0.77910   0.31169
C          C       0.00388   0.57078   0.76713  -0.23044
C          C       0.38426   0.75608   0.77291  -0.30673
C          C       0.57622   0.00179   0.75461  -0.24256
C          C       0.30411   0.71670   0.77021   0.31417
C          C       0.26901   0.64138   0.77356  -0.14925
C          C       0.31388   0.60763   0.77831  -0.07184
C          C       0.58707   0.28899   0.74049   0.31258
C          C       0.62740   0.25073   0.73365  -0.23473
C          C       0.70601   0.29090   0.73000   0.29500
C          C       0.74368   0.36720   0.73520  -0.18112
C          C       0.70297   0.40307   0.74469  -0.05921
C          C       0.82373   0.41232   0.73573   0.34036
C          C       0.59256   0.17335   0.73537   0.37595
C          C       0.41687   0.83194   0.76515   0.35408
C          C       0.18782   0.59542   0.76815   0.35231
C          C       0.43673   0.94115   0.75016   0.13344
C          C       0.50724   0.94216   0.75571   0.15084
N          N       0.14418   0.51760   0.25608  -0.39607
N          N       0.85579   0.47644   0.24594  -0.37418
N          N       0.49737   0.62223   0.26962  -0.36221
N          N       0.62011   0.12610   0.23670  -0.36456
N          N       0.50667   0.36883   0.25776  -0.40656
N          N       0.37741   0.86447   0.26217  -0.38478
N          N       0.15003   0.52404   0.75370  -0.39437
N          N       0.86253   0.48305   0.74867  -0.37636
N          N       0.50551   0.63084   0.77674  -0.36197
N          N       0.62648   0.13374   0.74178  -0.36414
N          N       0.51420   0.37716   0.76262  -0.40555
N          N       0.38179   0.87091   0.75622  -0.38836
O          O       0.13675   0.62023   0.27620  -0.16492
O          O       0.38521   0.52233   0.27405  -0.18508
O          O       0.86195   0.37317   0.22494  -0.21607
O          O       0.61761   0.47039   0.25853  -0.15909
O          O       0.50925   0.12726   0.23585  -0.16478
O          O       0.73666   0.24711   0.21522  -0.39370
O          O       0.25887   0.74428   0.27527  -0.39040
O          O       0.49683   0.74675   0.27871  -0.39178
O          O       0.50591   0.24543   0.23583  -0.39326
O          O       0.48878   0.86492   0.26595  -0.19573
O          O       0.14304   0.62676   0.77724  -0.16463
O          O       0.39237   0.53036   0.77613  -0.18360
O          O       0.86789   0.37939   0.72526  -0.21777
O          O       0.62475   0.47834   0.76094  -0.15942
O          O       0.51410   0.13415   0.73381  -0.16501
O          O       0.74332   0.25421   0.72196  -0.39572
O          O       0.26260   0.75019   0.76624  -0.39016
O          O       0.50382   0.75485   0.78276  -0.39464
O          O       0.51315   0.25357   0.74262  -0.39222
O          O       0.49456   0.87223   0.76608  -0.19685

