data_crystal

_audit_creation_method 'AiiDA-DDEC plugin'

_cell_length_a        20.80572
_cell_length_b        21.48670
_cell_length_c         7.73891

_cell_angle_alpha     78.12186
_cell_angle_beta     118.09771
_cell_angle_gamma     121.26964

_symmetry_space_group_name_Hall 'P 1'
_symmetry_space_group_name_H-M  'P 1'

loop_
_symmetry_equiv_pos_as_xyz
 'x,y,z'

loop_
_atom_site_label
_atom_site_type_symbol
_atom_site_fract_x
_atom_site_fract_y
_atom_site_fract_z
_atom_site_charge
H          H       0.37697   0.38141   0.27411   0.16325
H          H       0.62850   0.61334   0.22936   0.16828
H          H       0.27038   0.72747   0.26288   0.13255
H          H       0.27830   0.53213   0.25563   0.13348
H          H       0.73020   0.26292   0.24918   0.13217
H          H       0.73073   0.46345   0.24875   0.13427
H          H       0.99672   0.37410   0.25061   0.16004
H          H       0.37527   0.99040   0.25881   0.16402
H          H       0.01017   0.61778   0.26749   0.16070
H          H       0.62405   0.00384   0.23528   0.15845
H          H       0.51421   0.80024   0.24082   0.35120
H          H       0.48785   0.28411   0.25365   0.33086
H          H       0.38111   0.39042   0.76615   0.16226
H          H       0.63376   0.62229   0.72711   0.16949
H          H       0.27183   0.73327   0.75468   0.13192
H          H       0.28404   0.53988   0.75195   0.13456
H          H       0.73138   0.26893   0.73822   0.13134
H          H       0.73589   0.47081   0.74782   0.13275
H          H       0.00008   0.37958   0.74434   0.16055
H          H       0.38148   0.99839   0.77634   0.16388
H          H       0.01465   0.62335   0.76646   0.16140
H          H       0.62419   0.01133   0.72177   0.16118
H          H       0.51830   0.80919   0.74083   0.35130
H          H       0.49497   0.29382   0.76296   0.32869
C          C       0.43954   0.50000   0.25438   0.16028
C          C       0.42971   0.43058   0.26255  -0.24366
C          C       0.49586   0.42980   0.25742   0.12978
C          C       0.06832   0.49317   0.25924   0.13886
C          C       0.56492   0.49514   0.24689   0.15107
C          C       0.07004   0.55980   0.26334   0.15665
C          C       0.57515   0.56440   0.23931  -0.23282
C          C       0.50884   0.56513   0.24298   0.12346
C          C       0.93817   0.49871   0.25704   0.13367
C          C       0.42714   0.59609   0.24871   0.35502
C          C       0.93656   0.43210   0.25350   0.15536
C          C       0.58049   0.40184   0.24905   0.34999
C          C       0.56618   0.06360   0.24354   0.14158
C          C       0.49595   0.05781   0.24843   0.15567
C          C       0.38504   0.63250   0.25059  -0.10893
C          C       0.62110   0.36457   0.24751  -0.15529
C          C      -0.00038   0.42574   0.25434  -0.23958
C          C       0.42212   0.71003   0.24870   0.28995
C          C       0.42778   0.99330   0.25267  -0.24111
C          C       0.37951   0.74364   0.25377  -0.14580
C          C       0.00708   0.56614   0.26292  -0.23731
C          C       0.30159   0.70042   0.25852  -0.09633
C          C       0.57178   0.00134   0.24181  -0.25124
C          C       0.26508   0.62457   0.25873  -0.02427
C          C       0.30729   0.59123   0.25513  -0.09902
C          C       0.58010   0.28675   0.24729   0.28835
C          C       0.62082   0.25053   0.24614  -0.11405
C          C       0.70024   0.29205   0.24870  -0.09255
C          C       0.73994   0.36827   0.24947  -0.02576
C          C       0.69966   0.40422   0.24806  -0.09396
C          C       0.82173   0.41196   0.25151   0.32670
C          C       0.58589   0.17185   0.24481   0.36175
C          C       0.41203   0.82189   0.25254   0.33913
C          C       0.18428   0.57978   0.26195   0.33135
C          C       0.43343   0.93115   0.25137   0.13186
C          C       0.50356   0.93712   0.24635   0.15406
C          C       0.44491   0.50903   0.75081   0.16182
C          C       0.43480   0.43953   0.75859  -0.24546
C          C       0.50139   0.43863   0.75638   0.13094
C          C       0.07244   0.49870   0.75496   0.13364
C          C       0.57064   0.50385   0.74616   0.15193
C          C       0.07422   0.56527   0.76022   0.15602
C          C       0.58075   0.57313   0.73752  -0.23427
C          C       0.51451   0.57407   0.74091   0.12574
C          C       0.94264   0.50443   0.75476   0.13494
C          C       0.43290   0.60517   0.74670   0.35312
C          C       0.94033   0.43769   0.74844   0.16014
C          C       0.58652   0.41047   0.75147   0.35063
C          C       0.56821   0.07093   0.74043   0.14103
C          C       0.49980   0.06540   0.75408   0.15524
C          C       0.39046   0.64105   0.74958  -0.10512
C          C       0.62669   0.37276   0.74981  -0.15450
C          C       0.00335   0.43131   0.74903  -0.23873
C          C       0.42666   0.71844   0.74823   0.28835
C          C       0.43246   0.00099   0.76299  -0.24209
C          C       0.38262   0.75111   0.75055  -0.15110
C          C       0.01162   0.57175   0.76132  -0.23993
C          C       0.30427   0.70703   0.75279  -0.09043
C          C       0.57294   0.00867   0.73397  -0.25333
C          C       0.26894   0.63124   0.75404  -0.02653
C          C       0.31241   0.59893   0.75228  -0.10025
C          C       0.58530   0.29498   0.75135   0.28888
C          C       0.62450   0.25811   0.74556  -0.11685
C          C       0.70297   0.29878   0.74248  -0.09340
C          C       0.74374   0.37502   0.74480  -0.02728
C          C       0.70463   0.41162   0.74698  -0.08847
C          C       0.82555   0.41804   0.74632   0.33097
C          C       0.58889   0.17933   0.74475   0.36286
C          C       0.41468   0.82932   0.75059   0.34384
C          C       0.18815   0.58567   0.75674   0.32968
C          C       0.43690   0.93866   0.75584   0.13205
C          C       0.50542   0.94464   0.74222   0.15350
N          N       0.14206   0.50861   0.25972  -0.38558
N          N       0.86409   0.48322   0.25442  -0.38460
N          N       0.49827   0.62385   0.24011  -0.35643
N          N       0.62125   0.13660   0.24048  -0.39664
N          N       0.50836   0.37198   0.25737  -0.40143
N          N       0.37807   0.85808   0.25620  -0.37215
N          N       0.14620   0.51446   0.75440  -0.38357
N          N       0.86880   0.48926   0.75265  -0.38702
N          N       0.50424   0.63295   0.73901  -0.35722
N          N       0.62271   0.14373   0.73409  -0.39261
N          N       0.51425   0.38079   0.75908  -0.40160
N          N       0.38197   0.86542   0.76181  -0.37290
O          O       0.49014   0.86658   0.24739  -0.20443
O          O       0.14487   0.61564   0.26513  -0.18705
O          O       0.38656   0.51956   0.25736  -0.18458
O          O       0.86148   0.37617   0.25080  -0.18160
O          O       0.61896   0.47681   0.24298  -0.15946
O          O       0.50890   0.12750   0.24944  -0.15178
O          O       0.49627   0.74805   0.24071  -0.39881
O          O       0.50506   0.24855   0.24885  -0.39742
O          O       0.49139   0.87417   0.73876  -0.20589
O          O       0.14862   0.62122   0.76058  -0.18432
O          O       0.39180   0.52856   0.75269  -0.18357
O          O       0.86458   0.38186   0.74309  -0.18553
O          O       0.62489   0.48532   0.74408  -0.15871
O          O       0.51344   0.13527   0.75734  -0.15387
O          O       0.50136   0.75717   0.74286  -0.40156
O          O       0.51138   0.25749   0.75858  -0.39867

