data_crystal

_audit_creation_method 'AiiDA-DDEC plugin'

_cell_length_a        36.56073
_cell_length_b        36.35753
_cell_length_c         7.87938

_cell_angle_alpha     90.53958
_cell_angle_beta     90.20410
_cell_angle_gamma     120.31277

_symmetry_space_group_name_Hall 'P 1'
_symmetry_space_group_name_H-M  'P 1'

loop_
_symmetry_equiv_pos_as_xyz
 'x,y,z'

loop_
_atom_site_label
_atom_site_type_symbol
_atom_site_fract_x
_atom_site_fract_y
_atom_site_fract_z
_atom_site_charge
H          H       0.23551   0.66758   0.09632   0.10913
H          H       0.33004   0.56409   0.10471   0.10954
H          H       0.43333   0.76264   0.10770   0.11266
H          H       0.33171   0.76388   0.37722   0.11177
H          H       0.43025   0.66671   0.39468   0.10893
H          H       0.23343   0.56549   0.37729   0.11268
H          H       0.76404   0.33567   0.40972   0.11242
H          H       0.66912   0.43551   0.39232   0.11158
H          H       0.56687   0.23588   0.39501   0.11253
H          H       0.66866   0.23699   0.11654   0.11282
H          H       0.56635   0.33163   0.11624   0.11001
H          H       0.76383   0.43279   0.10135   0.11152
H          H       0.15696   0.62901   0.09494   0.13317
H          H       0.36941   0.52506   0.11090   0.13655
H          H       0.47398   0.84169   0.11479   0.13766
H          H       0.37238   0.84281   0.38332   0.13301
H          H       0.46965   0.62774   0.39886   0.13201
H          H       0.15492   0.52660   0.37125   0.13612
H          H       0.84252   0.37431   0.40307   0.13114
H          H       0.62956   0.47432   0.39325   0.13290
H          H       0.52864   0.15690   0.39494   0.13280
H          H       0.63030   0.15798   0.11895   0.13305
H          H       0.52691   0.37067   0.11906   0.13696
H          H       0.84256   0.47192   0.09975   0.13486
H          H       0.29405   0.70508   0.23580   0.10234
H          H       0.29216   0.58600   0.24609   0.10408
H          H       0.41085   0.70386   0.24491   0.10317
H          H       0.70579   0.29576   0.25860   0.10376
H          H       0.70574   0.41374   0.24980   0.10402
H          H       0.58788   0.29492   0.25857   0.10291
H          H       0.55951   0.56083   0.10720   0.14560
H          H       0.44104   0.99895   0.09420   0.14561
H          H       0.99706   0.43842   0.08238   0.14539
H          H       0.43782   0.43741   0.41131   0.14583
H          H       0.00106   0.56265   0.39877   0.14558
H          H       0.56207   0.00065   0.41980   0.14528
H          H       0.23498   0.66648   0.58838   0.11023
H          H       0.32880   0.56268   0.61612   0.10979
H          H       0.43113   0.76227   0.59510   0.11243
H          H       0.33330   0.76354   0.89346   0.11255
H          H       0.43199   0.66859   0.88141   0.10966
H          H       0.23367   0.56601   0.87840   0.11193
H          H       0.76387   0.33149   0.88746   0.11220
H          H       0.66777   0.43331   0.90680   0.11060
H          H       0.56780   0.23590   0.90651   0.11221
H          H       0.66737   0.23642   0.61411   0.11287
H          H       0.56832   0.33383   0.60252   0.10958
H          H       0.76418   0.43523   0.62593   0.11048
H          H       0.15639   0.62738   0.58665   0.13542
H          H       0.36870   0.52428   0.61941   0.13389
H          H       0.47160   0.84139   0.59995   0.13487
H          H       0.37367   0.84263   0.89614   0.13161
H          H       0.47191   0.63026   0.88204   0.13746
H          H       0.15510   0.52685   0.87410   0.13315
H          H       0.84218   0.37010   0.88166   0.13403
H          H       0.62909   0.47316   0.90621   0.13232
H          H       0.52866   0.15685   0.90284   0.13281
H          H       0.62868   0.15740   0.61584   0.13273
H          H       0.52972   0.37370   0.60309   0.13118
H          H       0.84261   0.47382   0.62206   0.13332
H          H       0.29364   0.70500   0.73690   0.10466
H          H       0.29190   0.58597   0.74103   0.10301
H          H       0.41055   0.70417   0.74366   0.10294
H          H       0.70504   0.29487   0.76235   0.10274
H          H       0.70571   0.41336   0.75543   0.10269
H          H       0.58760   0.29480   0.75448   0.10455
H          H       0.56097   0.56257   0.59510   0.14538
H          H       0.44101   0.99855   0.58982   0.14542
H          H       0.99692   0.43846   0.57325   0.14508
H          H       0.44137   0.44092   0.91412   0.14454
H          H       0.00106   0.56081   0.90603   0.14491
H          H       0.56172   0.00027   0.91756   0.14485
C          C       0.21821   0.63718   0.16029  -0.11801
C          C       0.36014   0.57791   0.17258  -0.11933
C          C       0.42008   0.77988   0.17146  -0.12162
C          C       0.36249   0.78057   0.31671  -0.11983
C          C       0.41700   0.63605   0.32970  -0.11825
C          C       0.21705   0.57922   0.31136  -0.12150
C          C       0.78081   0.36479   0.33714  -0.12087
C          C       0.63839   0.42133   0.32902  -0.11870
C          C       0.58079   0.21922   0.33159  -0.12057
C          C       0.63850   0.21985   0.18153  -0.12040
C          C       0.58014   0.36248   0.18016  -0.11890
C          C       0.78081   0.42019   0.17064  -0.12165
C          C       0.17408   0.61571   0.15819  -0.15100
C          C       0.38202   0.55575   0.17516  -0.15553
C          C       0.44315   0.82428   0.17457  -0.15446
C          C       0.38510   0.82492   0.32097  -0.15109
C          C       0.43930   0.61436   0.33323  -0.15180
C          C       0.17292   0.55720   0.30937  -0.15518
C          C       0.82488   0.38637   0.33526  -0.15259
C          C       0.61643   0.44339   0.33052  -0.15176
C          C       0.55904   0.17486   0.33245  -0.15115
C          C       0.61717   0.17548   0.18159  -0.15242
C          C       0.55776   0.38412   0.18065  -0.15405
C          C       0.82494   0.44230   0.16854  -0.15588
C          C       0.42942   0.51139   0.33163   0.43408
C          C       0.48871   0.91779   0.32980   0.43398
C          C       0.08216   0.56982   0.30896   0.43310
C          C       0.48483   0.56755   0.18499   0.43497
C          C       0.08029   0.51279   0.16015   0.43459
C          C       0.43314   0.91712   0.17775   0.43554
C          C       0.56826   0.48753   0.18836   0.43362
C          C       0.51492   0.08196   0.18019   0.43315
C          C       0.91607   0.43118   0.17331   0.43466
C          C       0.51259   0.43057   0.33063   0.43327
C          C       0.91795   0.48833   0.32159   0.43456
C          C       0.57026   0.08286   0.33519   0.43349
C          C       0.46313   0.50050   0.30159  -0.05735
C          C       0.49988   0.96270   0.29995  -0.05597
C          C       0.03694   0.53623   0.28121  -0.05633
C          C       0.49665   0.53454   0.21750  -0.05571
C          C       0.03583   0.50188   0.19422  -0.05615
C          C       0.46642   0.96228   0.21110  -0.05611
C          C       0.53437   0.49801   0.21861  -0.05619
C          C       0.50352   0.03713   0.21267  -0.05552
C          C       0.96128   0.46489   0.19992  -0.05860
C          C       0.50082   0.46382   0.30192  -0.05555
C          C       0.96240   0.49925   0.28680  -0.05300
C          C       0.53692   0.03761   0.30245  -0.05539
C          C       0.31079   0.68745   0.23830  -0.18140
C          C       0.30970   0.62062   0.24381  -0.18171
C          C       0.37640   0.68683   0.24359  -0.18097
C          C       0.68848   0.31283   0.25712  -0.18032
C          C       0.68847   0.37912   0.25258  -0.18156
C          C       0.62232   0.31237   0.25694  -0.18140
C          C       0.28747   0.64275   0.23964   0.07747
C          C       0.35413   0.64214   0.24541   0.07866
C          C       0.35526   0.71001   0.24074   0.07742
C          C       0.71115   0.35749   0.25505   0.07763
C          C       0.64405   0.35707   0.25453   0.07675
C          C       0.64405   0.28972   0.25712   0.07654
C          C       0.15166   0.57575   0.23338   0.17608
C          C       0.42154   0.57418   0.25586   0.17578
C          C       0.42544   0.84656   0.24997   0.17524
C          C       0.84665   0.42506   0.25078   0.17678
C          C       0.57611   0.42451   0.25652   0.17514
C          C       0.57747   0.15325   0.25749   0.17672
C          C       0.37943   0.75716   0.24240   0.05794
C          C       0.24057   0.61954   0.23705   0.05761
C          C       0.37715   0.61841   0.24945   0.05932
C          C       0.62089   0.24258   0.25679   0.05837
C          C       0.75799   0.38109   0.25430   0.05718
C          C       0.62071   0.38050   0.25438   0.05711
C          C       0.53346   0.53447   0.17276  -0.07384
C          C       0.46707  -0.00055   0.16381  -0.07328
C          C       0.99795   0.46507   0.15026  -0.07338
C          C       0.46398   0.46391   0.34673  -0.07328
C          C       0.00026   0.53608   0.33063  -0.07502
C          C       0.53623   0.00038   0.34960  -0.07222
C          C       0.21785   0.63636   0.65426  -0.11863
C          C       0.35979   0.57747   0.67746  -0.11871
C          C       0.41868   0.77958   0.66407  -0.12144
C          C       0.36305   0.78032   0.82548  -0.12168
C          C       0.41812   0.63736   0.82068  -0.11870
C          C       0.21708   0.57927   0.81073  -0.12041
C          C       0.78067   0.36222   0.82579  -0.11777
C          C       0.63798   0.42040   0.83719  -0.11937
C          C       0.58088   0.21903   0.83868  -0.12110
C          C       0.63754   0.21938   0.68130  -0.12134
C          C       0.58146   0.36387   0.67230  -0.11857
C          C       0.78090   0.42097   0.68516  -0.11882
C          C       0.17372   0.61464   0.65230  -0.15457
C          C       0.38205   0.55568   0.67822  -0.15190
C          C       0.44160   0.82395   0.66584  -0.15405
C          C       0.38554   0.82467   0.82820  -0.15113
C          C       0.44083   0.61608   0.82209  -0.15493
C          C       0.17296   0.55710   0.80961  -0.15291
C          C       0.82475   0.38372   0.82353  -0.15186
C          C       0.61650   0.44298   0.83789  -0.15218
C          C       0.55882   0.17463   0.83841  -0.15180
C          C       0.61604   0.17502   0.68100  -0.15195
C          C       0.55960   0.38607   0.67165  -0.15065
C          C       0.82499   0.44292   0.68207  -0.15045
C          C       0.43154   0.51342   0.82538   0.43426
C          C       0.48785   0.91713   0.82843   0.43525
C          C       0.08201   0.56840   0.81205   0.43399
C          C       0.48658   0.56946   0.67684   0.43384
C          C       0.08019   0.51254   0.65438   0.43317
C          C       0.43293   0.91685   0.67313   0.43446
C          C       0.57008   0.48881   0.67909   0.43379
C          C       0.51452   0.08162   0.67871   0.43318
C          C       0.91609   0.43059   0.66952   0.43327
C          C       0.51496   0.43341   0.83068   0.43281
C          C       0.91797   0.48687   0.82537   0.43387
C          C       0.56994   0.08254   0.83251   0.43269
C          C       0.46555   0.50300   0.79678  -0.05533
C          C       0.49953   0.96222   0.79768  -0.05632
C          C       0.03682   0.53504   0.78237  -0.05721
C          C       0.49869   0.53665   0.70957  -0.05421
C          C       0.03573   0.50131   0.69043  -0.05359
C          C       0.46625   0.96191   0.70766  -0.05750
C          C       0.53667   0.50018   0.71062  -0.05502
C          C       0.50323   0.03674   0.71000  -0.05401
C          C       0.96124   0.46413   0.69764  -0.05586
C          C       0.50351   0.46668   0.79858  -0.05705
C          C       0.96235   0.49800   0.78875  -0.05584
C          C       0.53660   0.03721   0.80007  -0.05720
C          C       0.31043   0.68739   0.73820  -0.18159
C          C       0.30958   0.62061   0.74071  -0.17973
C          C       0.37611   0.68685   0.74252  -0.18079
C          C       0.68808   0.31227   0.75987  -0.18138
C          C       0.68848   0.37872   0.75645  -0.17993
C          C       0.62206   0.31212   0.75619  -0.18116
C          C       0.28728   0.64268   0.73736   0.07761
C          C       0.35403   0.64217   0.74364   0.07549
C          C       0.35487   0.70990   0.74088   0.07844
C          C       0.71104   0.35694   0.75798   0.07646
C          C       0.64404   0.35683   0.75567   0.07725
C          C       0.64367   0.28936   0.75894   0.07843
C          C       0.15155   0.57511   0.73067   0.17623
C          C       0.42268   0.57532   0.74988   0.17623
C          C       0.42474   0.84619   0.74803   0.17578
C          C       0.84668   0.42406   0.75138   0.17586
C          C       0.57736   0.42558   0.75468   0.17528
C          C       0.57667   0.15290   0.75944   0.17483
C          C       0.37904   0.75700   0.74312   0.05747
C          C       0.24037   0.61927   0.73379   0.05828
C          C       0.37738   0.61874   0.74755   0.06008
C          C       0.62045   0.24222   0.75971   0.05781
C          C       0.75788   0.38026   0.75658   0.05890
C          C       0.62095   0.38054   0.75481   0.05871
C          C       0.53535   0.53639   0.66321  -0.07375
C          C       0.46691   0.99906   0.66043  -0.07377
C          C       0.99787   0.46470   0.64467  -0.07284
C          C       0.46692   0.46696   0.84522  -0.07370
C          C       0.00019   0.53458   0.83472  -0.07195
C          C       0.53588  -0.00005   0.84726  -0.07131
N          N       0.44842   0.89207   0.25243  -0.21557
N          N       0.10640   0.55366   0.23383  -0.21486
N          N       0.44438   0.55187   0.25815  -0.21430
N          N       0.55518   0.10775   0.25758  -0.21439
N          N       0.89190   0.44738   0.24870  -0.21798
N          N       0.55327   0.44677   0.25881  -0.21411
N          N       0.44774   0.89170   0.74957  -0.21556
N          N       0.10628   0.55296   0.73144  -0.21442
N          N       0.44606   0.55359   0.75014  -0.21385
N          N       0.55437   0.10738   0.75844  -0.21313
N          N       0.89186   0.44633   0.74866  -0.21510
N          N       0.55501   0.44845   0.75466  -0.21576
O          O       0.49474   0.09455   0.10046  -0.39569
O          O       0.90198   0.39681   0.10043  -0.39641
O          O       0.60177   0.50880   0.11493  -0.39625
O          O       0.90573   0.50913   0.40035  -0.39780
O          O       0.60335   0.09632   0.41530  -0.39553
O          O       0.49247   0.39660   0.40292  -0.39473
O          O       0.50912   0.90524   0.40805  -0.39566
O          O       0.09621   0.60394   0.38370  -0.39547
O          O       0.39615   0.49072   0.40732  -0.39740
O          O       0.09260   0.49197   0.08215  -0.39717
O          O       0.39980   0.90369   0.09975  -0.39606
O          O       0.50475   0.60085   0.10807  -0.39749
O          O       0.49455   0.09435   0.59844  -0.39757
O          O       0.90210   0.39678   0.59220  -0.39284
O          O       0.60319   0.50894   0.60172  -0.39437
O          O       0.90580   0.50731   0.90725  -0.39557
O          O       0.60354   0.09625   0.90887  -0.39542
O          O       0.49485   0.40029   0.90871  -0.39596
O          O       0.50750   0.90394   0.90806  -0.39614
O          O       0.09600   0.60187   0.89166  -0.39551
O          O       0.39824   0.49263   0.90068  -0.39617
O          O       0.09241   0.49213   0.57294  -0.39667
O          O       0.39998   0.90368   0.59240  -0.39841
O          O       0.50651   0.60283   0.60029  -0.39588

