data_crystal

_audit_creation_method 'AiiDA-DDEC plugin'

_cell_length_a        37.17507
_cell_length_b        37.00606
_cell_length_c         7.99153

_cell_angle_alpha     90.38464
_cell_angle_beta     90.17346
_cell_angle_gamma     120.18530

_symmetry_space_group_name_Hall 'P 1'
_symmetry_space_group_name_H-M  'P 1'

loop_
_symmetry_equiv_pos_as_xyz
 'x,y,z'

loop_
_atom_site_label
_atom_site_type_symbol
_atom_site_fract_x
_atom_site_fract_y
_atom_site_fract_z
_atom_site_charge
H          H       0.43919   0.03760   0.04943   0.13093
H          H       0.95910   0.39986   0.05419   0.13430
H          H       0.59640   0.56012   0.04526   0.13123
H          H       0.96119   0.56039   0.46199   0.13080
H          H       0.60163   0.04160   0.43827   0.13142
H          H       0.43664   0.39537   0.41611   0.13206
H          H       0.56204   0.96249   0.44920   0.13151
H          H       0.03985   0.59987   0.45957   0.13254
H          H       0.39659   0.43394   0.42358   0.13303
H          H       0.03777   0.43958   0.05057   0.13046
H          H       0.39993   0.95844   0.05650   0.13405
H          H       0.55645   0.59885   0.05470   0.13143
H          H       0.23645   0.66613   0.10088   0.11100
H          H       0.32925   0.56759   0.10216   0.11174
H          H       0.42902   0.76179   0.10902   0.10899
H          H       0.33467   0.76234   0.41847   0.11158
H          H       0.42782   0.66439   0.39926   0.11175
H          H       0.23642   0.57138   0.41049   0.10861
H          H       0.76121   0.33395   0.41657   0.10824
H          H       0.66586   0.43241   0.38879   0.11262
H          H       0.57038   0.23752   0.40315   0.11100
H          H       0.66613   0.23853   0.09783   0.11143
H          H       0.57170   0.33265   0.08644   0.11211
H          H       0.76357   0.43031   0.11006   0.11096
H          H       0.15952   0.62779   0.10223   0.13008
H          H       0.36673   0.52804   0.09954   0.13424
H          H       0.46797   0.83908   0.11221   0.13191
H          H       0.37348   0.83961   0.41963   0.13225
H          H       0.46527   0.62504   0.39481   0.13305
H          H       0.15938   0.53300   0.41121   0.13226
H          H       0.83824   0.37176   0.42103   0.13328
H          H       0.62652   0.46974   0.37424   0.13239
H          H       0.53212   0.16020   0.39814   0.13309
H          H       0.62771   0.16135   0.09229   0.13126
H          H       0.53192   0.36973   0.07590   0.13335
H          H       0.84056   0.46761   0.11241   0.12989
H          H       0.29492   0.70547   0.25650   0.10468
H          H       0.29218   0.58807   0.25088   0.10417
H          H       0.40935   0.70323   0.25851   0.10445
H          H       0.70462   0.29537   0.25905   0.10455
H          H       0.70542   0.41188   0.25418   0.10421
H          H       0.58927   0.29561   0.24780   0.10369
H          H       0.44372   0.03758   0.54220   0.13029
H          H       0.95917   0.40158   0.57888   0.13103
H          H       0.59855   0.55997   0.52649   0.13232
H          H       0.96298   0.56616   0.95630   0.13525
H          H       0.60308   0.04083   0.95466   0.13125
H          H       0.44171   0.40000   0.93076   0.13407
H          H       0.56373   0.96175   0.95988   0.13169
H          H       0.04163   0.60530   0.95147   0.13159
H          H       0.40203   0.43880   0.93513   0.13009
H          H       0.03786   0.44076   0.57303   0.13177
H          H       0.40375   0.95826   0.55240   0.13075
H          H       0.55867   0.59873   0.52886   0.13083
H          H       0.23896   0.66845   0.60979   0.11062
H          H       0.33188   0.56819   0.59830   0.11166
H          H       0.43174   0.76145   0.61486   0.11245
H          H       0.33460   0.76197   0.90514   0.10985
H          H       0.42842   0.66377   0.90729   0.11041
H          H       0.23623   0.56898   0.89623   0.10980
H          H       0.76333   0.33488   0.90990   0.11002
H          H       0.66662   0.43099   0.89031   0.10947
H          H       0.57053   0.23719   0.88974   0.11128
H          H       0.66930   0.23816   0.60651   0.10996
H          H       0.57192   0.33245   0.58551   0.10888
H          H       0.76338   0.43189   0.61480   0.11232
H          H       0.16215   0.63205   0.61297   0.13341
H          H       0.37092   0.53030   0.58861   0.13073
H          H       0.47092   0.83875   0.62006   0.13779
H          H       0.37390   0.83920   0.90979   0.13232
H          H       0.46724   0.62577   0.89705   0.13408
H          H       0.15938   0.53250   0.89818   0.13237
H          H       0.84021   0.37450   0.91654   0.13191
H          H       0.62806   0.46920   0.87826   0.13413
H          H       0.53272   0.15993   0.88866   0.13262
H          H       0.63147   0.16081   0.60687   0.13862
H          H       0.53352   0.37107   0.57308   0.13173
H          H       0.84022   0.47152   0.62357   0.13829
H          H       0.29628   0.70506   0.75541   0.10359
H          H       0.29361   0.58766   0.75251   0.10461
H          H       0.41068   0.70283   0.75713   0.10393
H          H       0.70630   0.29590   0.75848   0.10396
H          H       0.70544   0.41154   0.75284   0.10378
H          H       0.59016   0.29466   0.74203   0.10375
C          C       0.57513   0.09105   0.31866   0.42906
C          C       0.90988   0.48412   0.34021   0.42810
C          C       0.51294   0.42245   0.29843   0.42612
C          C       0.90894   0.42456   0.18492   0.42811
C          C       0.51541   0.08977   0.16694   0.42821
C          C       0.57164   0.48316   0.15256   0.42799
C          C       0.42538   0.90894   0.18598   0.42709
C          C       0.08912   0.51552   0.17658   0.42836
C          C       0.48048   0.57170   0.17187   0.42932
C          C       0.08977   0.57482   0.33263   0.42733
C          C       0.48528   0.91055   0.33715   0.42849
C          C       0.42136   0.51105   0.31547   0.42877
C          C       0.49293   0.04340   0.17236  -0.06792
C          C       0.95513   0.44839   0.18406  -0.06951
C          C       0.54807   0.50563   0.16270  -0.06841
C          C       0.95596   0.50709   0.33375  -0.06818
C          C       0.55217   0.04475   0.31607  -0.06974
C          C       0.48979   0.44547   0.29967  -0.06482
C          C       0.50828   0.95678   0.32613  -0.06630
C          C       0.04365   0.55124   0.33015  -0.06725
C          C       0.44509   0.48862   0.30775  -0.06799
C          C       0.04295   0.49269   0.18015  -0.06764
C          C       0.44909   0.95527   0.18160  -0.07013
C          C       0.50360   0.54876   0.17238  -0.06942
C          C       0.45296   0.02056   0.10503  -0.07287
C          C       0.97682   0.43094   0.10995  -0.07676
C          C       0.56545   0.54590   0.09934  -0.07311
C          C       0.97834   0.54687   0.40490  -0.07384
C          C       0.57032   0.02339   0.38649  -0.07392
C          C       0.44997   0.42686   0.36688  -0.07602
C          C       0.54840   0.97950   0.39201  -0.07295
C          C       0.02204   0.56888   0.40307  -0.07593
C          C       0.42770   0.44831   0.37089  -0.07394
C          C       0.02057   0.45299   0.10808  -0.07361
C          C       0.43113   0.97663   0.10940  -0.07664
C          C       0.54329   0.56741   0.10436  -0.07281
C          C       0.21989   0.63740   0.17171  -0.12042
C          C       0.35862   0.58002   0.16958  -0.12606
C          C       0.41705   0.77850   0.18074  -0.12021
C          C       0.36337   0.77880   0.34799  -0.12273
C          C       0.41456   0.63502   0.33016  -0.12153
C          C       0.21980   0.58343   0.33939  -0.12032
C          C       0.77833   0.36287   0.34723  -0.11935
C          C       0.63703   0.41877   0.31675  -0.12275
C          C       0.58282   0.22112   0.33222  -0.12343
C          C       0.63722   0.22169   0.16679  -0.12211
C          C       0.58343   0.36218   0.15345  -0.12472
C          C       0.77960   0.41762   0.18112  -0.12049
C          C       0.17654   0.61591   0.17140  -0.14703
C          C       0.37953   0.55757   0.16709  -0.14432
C          C       0.43914   0.82206   0.18135  -0.14706
C          C       0.38512   0.82236   0.34988  -0.14680
C          C       0.43577   0.61293   0.32901  -0.14725
C          C       0.17646   0.56169   0.34072  -0.14656
C          C       0.82170   0.38392   0.35016  -0.14636
C          C       0.61492   0.43993   0.31004  -0.14850
C          C       0.56106   0.17756   0.33012  -0.14725
C          C       0.61569   0.17816   0.16271  -0.14635
C          C       0.56092   0.38293   0.14620  -0.14446
C          C       0.82292   0.43876   0.18147  -0.14685
C          C       0.51178   0.02233   0.24581   0.02218
C          C       0.97722   0.48869   0.25760   0.02224
C          C       0.50796   0.48625   0.23397   0.02177
C          C       0.48960   0.97779   0.25075   0.02124
C          C       0.02161   0.51107   0.25563   0.02163
C          C       0.48539   0.50803   0.23830   0.02152
C          C       0.31130   0.68802   0.25616  -0.18381
C          C       0.30980   0.62207   0.25236  -0.18319
C          C       0.37552   0.68673   0.25674  -0.18337
C          C       0.68795   0.31252   0.25739  -0.18391
C          C       0.68833   0.37789   0.25423  -0.18263
C          C       0.62312   0.31262   0.25024  -0.18398
C          C       0.28831   0.64419   0.25400   0.07747
C          C       0.35342   0.64285   0.25301   0.07832
C          C       0.35497   0.70978   0.25859   0.07924
C          C       0.71044   0.35637   0.25876   0.07890
C          C       0.64467   0.35649   0.24883   0.07750
C          C       0.64432   0.29021   0.25354   0.07839
C          C       0.15510   0.57804   0.25558   0.16632
C          C       0.41807   0.57422   0.24752   0.16667
C          C       0.42286   0.84375   0.26561   0.16753
C          C       0.84374   0.42169   0.26564   0.16715
C          C       0.57669   0.42163   0.22625   0.16612
C          C       0.57767   0.15635   0.24477   0.16745
C          C       0.37870   0.75603   0.26275   0.05821
C          C       0.24230   0.62152   0.25470   0.05888
C          C       0.37564   0.61908   0.25080   0.05922
C          C       0.62125   0.24398   0.25111   0.05877
C          C       0.75647   0.37917   0.26271   0.05836
C          C       0.62162   0.37940   0.23987   0.05984
C          C       0.57780   0.09073   0.82691   0.42719
C          C       0.91100   0.48890   0.84404   0.42785
C          C       0.51615   0.42488   0.79956   0.43046
C          C       0.90986   0.42825   0.69710   0.42876
C          C       0.51843   0.08932   0.67120   0.42757
C          C       0.57467   0.48447   0.64843   0.42865
C          C       0.42774   0.90887   0.69139   0.42758
C          C       0.08958   0.51768   0.68517   0.42887
C          C       0.48368   0.57342   0.65677   0.42883
C          C       0.09126   0.57878   0.83034   0.42856
C          C       0.48725   0.90991   0.84381   0.42865
C          C       0.42570   0.51420   0.81237   0.42943
C          C       0.49595   0.04305   0.67643  -0.06711
C          C       0.95594   0.45156   0.69867  -0.06787
C          C       0.55081   0.50674   0.65202  -0.06781
C          C       0.95718   0.51159   0.83777  -0.06571
C          C       0.55437   0.04437   0.82725  -0.06643
C          C       0.49335   0.44816   0.79934  -0.06949
C          C       0.51029   0.95622   0.83510  -0.06668
C          C       0.04506   0.55538   0.83133  -0.06963
C          C       0.44924   0.49170   0.80553  -0.06747
C          C       0.04354   0.49520   0.69260  -0.06849
C          C       0.45178   0.95511   0.68647  -0.07054
C          C       0.50653   0.55016   0.65665  -0.06979
C          C       0.45663   0.02038   0.60336  -0.07286
C          C       0.97724   0.43307   0.63048  -0.07262
C          C       0.56783   0.54632   0.58223  -0.07544
C          C       0.97993   0.55203   0.90280  -0.07915
C          C       0.57205   0.02280   0.90011  -0.07500
C          C       0.45445   0.43065   0.87396  -0.07750
C          C       0.55016   0.97889   0.90341  -0.07486
C          C       0.02369   0.57380   0.89989  -0.07230
C          C       0.43242   0.45230   0.87661  -0.07282
C          C       0.02091   0.45482   0.62726  -0.07285
C          C       0.43455   0.97648   0.60865  -0.07313
C          C       0.54573   0.56791   0.58420  -0.07468
C          C       0.22183   0.63912   0.67655  -0.12209
C          C       0.36117   0.58073   0.66643  -0.12247
C          C       0.41918   0.77812   0.68298  -0.12317
C          C       0.36409   0.77846   0.83986  -0.12005
C          C       0.41602   0.63509   0.83376  -0.12078
C          C       0.22028   0.58267   0.83100  -0.12179
C          C       0.77986   0.36438   0.84387  -0.12013
C          C       0.63794   0.41797   0.81758  -0.12023
C          C       0.58375   0.22078   0.82437  -0.12172
C          C       0.63979   0.22133   0.67141  -0.12148
C          C       0.58405   0.36204   0.65241  -0.12050
C          C       0.77983   0.41947   0.68482  -0.12415
C          C       0.17849   0.61871   0.67725  -0.14488
C          C       0.38299   0.55925   0.65996  -0.14490
C          C       0.44151   0.82169   0.68532  -0.15019
C          C       0.38614   0.82198   0.84395  -0.14440
C          C       0.43809   0.61387   0.82882  -0.14870
C          C       0.17696   0.56197   0.83318  -0.14461
C          C       0.82321   0.38660   0.84886  -0.14508
C          C       0.61642   0.43972   0.81150  -0.14793
C          C       0.56234   0.17724   0.82504  -0.14567
C          C       0.61869   0.17779   0.67080  -0.14876
C          C       0.56233   0.38361   0.64437  -0.14502
C          C       0.82318   0.44200   0.68869  -0.15054
C          C       0.51423   0.02198   0.75454   0.02114
C          C       0.97824   0.49236   0.76716   0.02182
C          C       0.51110   0.48815   0.72649   0.02225
C          C       0.49193   0.97744   0.75887   0.02209
C          C       0.02260   0.51447   0.76390   0.02172
C          C       0.48876   0.51016   0.72940   0.02259
C          C       0.31268   0.68764   0.75506  -0.18352
C          C       0.31112   0.62166   0.75337  -0.18309
C          C       0.37685   0.68639   0.75609  -0.18321
C          C       0.68925   0.31266   0.75555  -0.18315
C          C       0.68875   0.37755   0.75255  -0.18204
C          C       0.62400   0.31192   0.74628  -0.18236
C          C       0.28961   0.64381   0.75354   0.07711
C          C       0.35475   0.64253   0.75428   0.07859
C          C       0.35632   0.70945   0.75661   0.07863
C          C       0.71131   0.35654   0.75686   0.07719
C          C       0.64513   0.35576   0.74664   0.07791
C          C       0.64560   0.28990   0.75014   0.07704
C          C       0.15621   0.58013   0.75617   0.16714
C          C       0.42147   0.57612   0.74086   0.16680
C          C       0.42481   0.84339   0.76645   0.16626
C          C       0.84468   0.42540   0.77103   0.16689
C          C       0.57864   0.42231   0.72490   0.16776
C          C       0.58010   0.15598   0.74862   0.16637
C          C       0.38008   0.75567   0.75966   0.05915
C          C       0.24359   0.62166   0.75346   0.05940
C          C       0.37737   0.61915   0.75199   0.05846
C          C       0.62288   0.24366   0.74847   0.05995
C          C       0.75733   0.38029   0.76202   0.05864
C          C       0.62215   0.37874   0.73899   0.05944
N          N       0.44519   0.88913   0.26298  -0.19924
N          N       0.10994   0.55543   0.25480  -0.19941
N          N       0.44049   0.55152   0.24497  -0.19853
N          N       0.55538   0.11100   0.24245  -0.19943
N          N       0.88891   0.44392   0.26449  -0.19868
N          N       0.55298   0.44300   0.22506  -0.19765
N          N       0.44744   0.88874   0.76687  -0.19788
N          N       0.11104   0.55827   0.75763  -0.19931
N          N       0.44428   0.55384   0.73501  -0.20053
N          N       0.55805   0.11065   0.74984  -0.19801
N          N       0.88986   0.44817   0.77248  -0.20085
N          N       0.55561   0.44438   0.72188  -0.20015
O          O       0.50021   0.10887   0.09978  -0.41763
O          O       0.88898   0.38989   0.11819  -0.41606
O          O       0.60571   0.49852   0.08408  -0.41832
O          O       0.89067   0.49898   0.40921  -0.41743
O          O       0.60958   0.11125   0.38525  -0.41800
O          O       0.49838   0.38747   0.35923  -0.41592
O          O       0.50005   0.89163   0.40889  -0.41951
O          O       0.10955   0.60944   0.39973  -0.41804
O          O       0.38701   0.49548   0.38170  -0.41683
O          O       0.10844   0.50070   0.10817  -0.41684
O          O       0.39027   0.88864   0.12503  -0.41605
O          O       0.49522   0.60651   0.10919  -0.41655
O          O       0.50357   0.10831   0.60061  -0.41645
O          O       0.88991   0.39337   0.63236  -0.41673
O          O       0.60923   0.49994   0.58424  -0.41557
O          O       0.89197   0.50454   0.90869  -0.41692
O          O       0.61250   0.11094   0.89159  -0.41574
O          O       0.50174   0.39051   0.86589  -0.41794
O          O       0.50182   0.89081   0.91580  -0.41706
O          O       0.11141   0.61411   0.89118  -0.41447
O          O       0.39195   0.49954   0.88295  -0.41807
O          O       0.10819   0.50197   0.61749  -0.41684
O          O       0.39244   0.88883   0.63203  -0.41425
O          O       0.49822   0.60798   0.59195  -0.41721

