data_crystal

_audit_creation_method 'AiiDA-DDEC plugin'

_cell_length_a        31.26294
_cell_length_b        31.37106
_cell_length_c         8.16547

_cell_angle_alpha     95.78447
_cell_angle_beta     103.02579
_cell_angle_gamma     120.00652

_symmetry_space_group_name_Hall 'P 1'
_symmetry_space_group_name_H-M  'P 1'

loop_
_symmetry_equiv_pos_as_xyz
 'x,y,z'

loop_
_atom_site_label
_atom_site_type_symbol
_atom_site_fract_x
_atom_site_fract_y
_atom_site_fract_z
_atom_site_charge
H          H       0.30591   0.57598   0.08835   0.11678
H          H       0.43242   0.73202   0.19552   0.12221
H          H       0.28208   0.69745   0.12249   0.11270
H          H       0.70867   0.42839   0.16739   0.12250
H          H       0.58490   0.27667   0.11271   0.11134
H          H       0.74262   0.31490   0.19281   0.12024
H          H       0.56916   0.30246   0.31585   0.12256
H          H       0.71861   0.42049   0.40561   0.11343
H          H       0.68528   0.26814   0.37384   0.11876
H          H       0.41653   0.69923   0.39781   0.11127
H          H       0.25637   0.57348   0.29449   0.12273
H          H       0.29307   0.72468   0.35074   0.12195
H          H       0.34937   0.52975   0.08524   0.13314
H          H       0.48121   0.82472   0.23113   0.13915
H          H       0.18905   0.65030   0.10001   0.13257
H          H       0.66168   0.47216   0.16502   0.14209
H          H       0.53589   0.18542   0.08727   0.13732
H          H       0.83479   0.36136   0.21089   0.13078
H          H       0.52353   0.34799   0.30397   0.13882
H          H       0.81140   0.46801   0.42795   0.13343
H          H       0.63871   0.17791   0.36705   0.13117
H          H       0.46383   0.65651   0.40527   0.13569
H          H       0.16426   0.52494   0.27839   0.13237
H          H       0.34237   0.81638   0.37256   0.13667
H          H       0.99796   0.57550   0.98677   0.15314
H          H       0.42647   0.42087   0.06419   0.14565
H          H       0.57826   0.99337   0.97260   0.15317
H          H       0.00239   0.41639   0.00806   0.15564
H          H       0.57128   0.56915   0.92383   0.14564
H          H       0.42796   0.00173   0.07466   0.15266
H          H       0.30559   0.58304   0.58461   0.11482
H          H       0.42860   0.73958   0.69571   0.12323
H          H       0.27901   0.70532   0.61215   0.11749
H          H       0.70637   0.43408   0.68818   0.12449
H          H       0.58532   0.28672   0.61675   0.11181
H          H       0.73921   0.31774   0.67262   0.12233
H          H       0.56757   0.29210   0.83451   0.12363
H          H       0.71783   0.40900   0.88782   0.10961
H          H       0.68954   0.26238   0.88293   0.12017
H          H       0.41816   0.69036   0.89975   0.11601
H          H       0.25807   0.56738   0.78922   0.12326
H          H       0.29667   0.71784   0.85664   0.11683
H          H       0.35087   0.53880   0.58267   0.13300
H          H       0.47780   0.83185   0.72345   0.13499
H          H       0.18679   0.65753   0.59600   0.13522
H          H       0.65931   0.47786   0.68542   0.13850
H          H       0.53678   0.19566   0.60506   0.13203
H          H       0.83150   0.36375   0.69184   0.13024
H          H       0.52198   0.33745   0.81817   0.14341
H          H       0.81069   0.45789   0.91273   0.13016
H          H       0.64313   0.17160   0.86928   0.13633
H          H       0.46451   0.64680   0.91184   0.13196
H          H       0.16524   0.51964   0.76597   0.13498
H          H       0.34618   0.81012   0.88185   0.13414
H          H       0.99801   0.58286   0.49867   0.15803
H          H       0.43154   0.43479   0.58601   0.14333
H          H       0.57608   0.00179   0.47680   0.14870
H          H      -0.00050   0.42161   0.50348   0.15212
H          H       0.57013   0.57608   0.40180   0.14424
H          H       0.42388   0.00852   0.56763   0.15291
C          C       0.04129   0.49372   0.97539  -0.05957
C          C       0.49742   0.53695   0.97704  -0.05692
C          C       0.46294   0.95701   0.05561  -0.05073
C          C       0.95930   0.49826   0.01913  -0.06065
C          C       0.50066   0.45286   0.01198  -0.05585
C          C       0.54327   0.03812   0.99278  -0.05048
C          C       0.49902   0.04822   0.52231  -0.06487
C          C       0.54127   0.50270   0.46613  -0.05092
C          C       0.95832   0.46020   0.52463  -0.05718
C          C       0.50093   0.96199   0.52231  -0.06131
C          C       0.46045   0.50783   0.52018  -0.05244
C          C       0.03867   0.54392   0.47429  -0.05522
C          C       0.09130   0.50341   0.95423   0.42801
C          C       0.48410   0.57585   0.95918   0.43000
C          C       0.42524   0.90764   0.08401   0.42775
C          C       0.91081   0.49008   0.04849   0.42654
C          C       0.51333   0.41314   0.02422   0.43687
C          C       0.57979   0.08703   0.95883   0.42412
C          C       0.50864   0.09925   0.51453   0.42595
C          C       0.57979   0.48913   0.44808   0.43035
C          C       0.90870   0.42093   0.54623   0.42241
C          C       0.49048   0.91028   0.52480   0.42369
C          C       0.42251   0.52124   0.54277   0.42852
C          C       0.08653   0.58227   0.44161   0.43129
C          C       0.34004   0.59137   0.04579  -0.16212
C          C       0.41300   0.74870   0.12721  -0.16786
C          C       0.25634   0.65856   0.04481  -0.17483
C          C       0.66745   0.40765   0.09518  -0.17241
C          C       0.59719   0.25372   0.05541  -0.16650
C          C       0.75697   0.34555   0.12834  -0.15741
C          C       0.58940   0.34094   0.39629  -0.16323
C          C       0.74351   0.40829   0.46831  -0.17550
C          C       0.65357   0.25298   0.42847  -0.16175
C          C       0.40221   0.66445   0.44109  -0.16716
C          C       0.24173   0.59184   0.36418  -0.16094
C          C       0.33386   0.74763   0.42864  -0.17339
C          C       0.36491   0.56501   0.04549  -0.16157
C          C       0.44110   0.80114   0.14575  -0.14281
C          C       0.20395   0.63210   0.03111  -0.14542
C          C       0.64130   0.43284   0.09128  -0.14488
C          C       0.56932   0.20180   0.04173  -0.15668
C          C       0.80957   0.37232   0.14036  -0.15617
C          C       0.56314   0.36609   0.39118  -0.14010
C          C       0.79585   0.43524   0.48192  -0.14861
C          C       0.62671   0.20135   0.42249  -0.16278
C          C       0.42937   0.64029   0.44542  -0.15872
C          C       0.18930   0.56431   0.35362  -0.15474
C          C       0.36136   0.79967   0.44357  -0.14291
C          C      -0.00099   0.54145   0.99060  -0.07308
C          C       0.45767   0.45271   0.03502  -0.07652
C          C       0.54608   0.99513   0.99496  -0.08000
C          C       0.00126   0.45035   0.00265  -0.07794
C          C       0.54051   0.53736   0.95473  -0.07807
C          C       0.46031   0.00003   0.05395  -0.07720
C          C       0.27753   0.63585   0.96328   0.17059
C          C       0.35832   0.63705   0.99379   0.16282
C          C       0.36084   0.71742   0.01884   0.17282
C          C       0.72287   0.35800   0.03522   0.16772
C          C       0.64169   0.35631   0.00539   0.17277
C          C       0.64120   0.27721   0.00066   0.16485
C          C       0.41068   0.58468  -0.00071   0.18212
C          C       0.41728   0.82341   0.05640   0.16630
C          C       0.17079   0.58138   0.93351   0.16788
C          C       0.58853   0.40723   0.99397   0.16979
C          C       0.58571   0.17123   0.97673   0.17350
C          C       0.82960   0.41305   0.06274   0.16724
C          C       0.03956   0.49981   0.47822  -0.05925
C          C       0.49837   0.54663   0.46877  -0.05640
C          C       0.45915   0.96405   0.54876  -0.05029
C          C       0.95840   0.50493   0.52597  -0.05792
C          C       0.50271   0.46352   0.51583  -0.05584
C          C       0.54086   0.04629   0.49704  -0.05119
C          C       0.50202   0.04044   0.02197  -0.06166
C          C       0.54089   0.49390   0.97463  -0.05325
C          C       0.96005   0.45412   0.02374  -0.05550
C          C       0.50439   0.95462   0.02732  -0.05779
C          C       0.45778   0.49653   0.01739  -0.05220
C          C       0.03987   0.53746   0.96766  -0.05562
C          C       0.08914   0.50915   0.45478   0.42524
C          C       0.48458   0.58530   0.44897   0.43302
C          C       0.42126   0.91431   0.57455   0.43224
C          C       0.91041   0.49689   0.55834   0.42701
C          C       0.51545   0.42398   0.53322   0.43296
C          C       0.57906   0.09613   0.47373   0.42430
C          C       0.51088   0.09095   0.00998   0.41987
C          C       0.58013   0.48145   0.95864   0.43540
C          C       0.91083   0.41524   0.04973   0.42357
C          C       0.49435   0.90326   0.03487   0.42857
C          C       0.41950   0.50980   0.03825   0.42574
C          C       0.08773   0.57582   0.93409   0.42929
C          C       0.33965   0.59923   0.54164  -0.16187
C          C       0.40961   0.75599   0.62292  -0.16232
C          C       0.25405   0.66565   0.54150  -0.17700
C          C       0.66597   0.41431   0.60688  -0.16843
C          C       0.59673   0.26272   0.56102  -0.17300
C          C       0.75441   0.34984   0.61494  -0.16142
C          C       0.58879   0.33163   0.90597  -0.17264
C          C       0.74376   0.39927   0.96097  -0.17341
C          C       0.65646   0.24614   0.93098  -0.16068
C          C       0.40345   0.65586   0.94497  -0.16406
C          C       0.24340   0.58576   0.85865  -0.16218
C          C       0.33727   0.74103   0.93595  -0.17254
C          C       0.36552   0.57383   0.54143  -0.15999
C          C       0.43766   0.80827   0.63837  -0.14575
C          C       0.20189   0.63885   0.53076  -0.14646
C          C       0.64001   0.43973   0.60281  -0.13803
C          C       0.56917   0.21117   0.55416  -0.15377
C          C       0.80699   0.37631   0.62798  -0.15605
C          C       0.56246   0.35673   0.89909  -0.14232
C          C       0.79617   0.42685   0.97511  -0.14413
C          C       0.62975   0.19421   0.92108  -0.16648
C          C       0.42987   0.63097   0.95076  -0.15521
C          C       0.19068   0.55853   0.84540  -0.15269
C          C       0.36491   0.79311   0.95237  -0.14309
C          C       0.99828   0.54833   0.49944  -0.07288
C          C       0.46113   0.46486   0.54546  -0.07600
C          C       0.54343   0.00316   0.49626  -0.07495
C          C      -0.00084   0.45610   0.50216  -0.08188
C          C       0.54035   0.54566   0.44065  -0.07750
C          C       0.45660   0.00717   0.54895  -0.07553
C          C       0.27555   0.64256   0.46358   0.17001
C          C       0.35692   0.64484   0.48958   0.15998
C          C       0.35772   0.72440   0.51319   0.17017
C          C       0.72149   0.36483   0.53163   0.17030
C          C       0.64110   0.36435   0.50513   0.16891
C          C       0.63967   0.28490   0.50071   0.16503
C          C       0.41118   0.59411   0.49451   0.18227
C          C       0.41377   0.83020   0.54694   0.16684
C          C       0.16921   0.58753   0.43887   0.16696
C          C       0.58849   0.41549   0.49470   0.16888
C          C       0.58431   0.17974   0.48631   0.17806
C          C       0.82803   0.41904   0.56041   0.16655
N          N       0.11802   0.55377   0.93219  -0.22379
N          N       0.43684   0.55820  -0.00007  -0.19772
N          N       0.44560   0.87642   0.06554  -0.21359
N          N       0.88225   0.43886   0.06228  -0.21968
N          N       0.56162   0.43276   0.99182  -0.21090
N          N       0.55961   0.11872   0.97757  -0.20522
N          N       0.33219   0.66339   0.99055  -0.12357
N          N       0.66863   0.33043   0.01498  -0.12372
N          N       0.11662   0.56000   0.43828  -0.21885
N          N       0.43799   0.56819   0.49503  -0.19706
N          N       0.44184   0.88322   0.55552  -0.21536
N          N       0.88070   0.44480   0.56245  -0.21650
N          N       0.56183   0.44148   0.48974  -0.21386
N          N       0.55823   0.12739   0.48795  -0.20666
N          N       0.32991   0.67043   0.48662  -0.12061
N          N       0.66753   0.33797   0.51250  -0.12502
O          O       0.10734   0.47507   0.95806  -0.38480
O          O       0.50841   0.61449   0.91260  -0.38460
O          O       0.38537   0.89560   0.11917  -0.39663
O          O       0.89785   0.52073   0.06070  -0.38033
O          O       0.48835   0.37228   0.05752  -0.39942
O          O       0.61883   0.09788   0.91959  -0.38388
O          O       0.48000   0.11420   0.52792  -0.37547
O          O       0.61859   0.51268   0.40489  -0.39785
O          O       0.89392   0.37684   0.54684  -0.38561
O          O       0.51723   0.89361   0.50323  -0.39079
O          O       0.38598   0.49696   0.59615  -0.38804
O          O       0.09810   0.62399   0.41849  -0.38468
O          O       0.10405   0.47987   0.45179  -0.38843
O          O       0.50812   0.62357   0.39974  -0.38505
O          O       0.38124   0.90190   0.60871  -0.39421
O          O       0.89870   0.52821   0.58043  -0.37800
O          O       0.49205   0.38483   0.57812  -0.39971
O          O       0.62002   0.10799   0.44701  -0.38662
O          O       0.48208   0.10566   0.02409  -0.37479
O          O       0.61969   0.50667   0.92096  -0.40042
O          O       0.89676   0.37172   0.05658  -0.37988
O          O       0.52121   0.88650   0.01612  -0.38740
O          O       0.38145   0.48465   0.08369  -0.38666
O          O       0.09925   0.61744   0.90981  -0.38659

