data_crystal

_audit_creation_method 'AiiDA-DDEC plugin'

_cell_length_a        13.64038
_cell_length_b         8.37266
_cell_length_c        25.26167

_cell_angle_alpha     89.80304
_cell_angle_beta     90.83628
_cell_angle_gamma     89.52561

_symmetry_space_group_name_Hall 'P 1'
_symmetry_space_group_name_H-M  'P 1'

loop_
_symmetry_equiv_pos_as_xyz
 'x,y,z'

loop_
_atom_site_label
_atom_site_type_symbol
_atom_site_fract_x
_atom_site_fract_y
_atom_site_fract_z
_atom_site_charge
H          H       0.73593   0.47349   0.26692   0.10423
H          H       0.73700   0.54366   0.78116   0.10275
H          H       0.01103   0.26175   0.22272   0.10546
H          H       0.00531   0.71236   0.71450   0.10387
H          H       0.92471   0.04033   0.18123   0.09626
H          H       0.91377   0.92574   0.66771   0.09578
H          H       0.64831   0.25154   0.22321   0.11441
H          H       0.64557   0.76070   0.73503   0.11682
H          H       0.08275   0.69204   0.32225   0.10593
H          H       0.08075   0.30860   0.83056   0.10479
H          H       0.94652   0.55726   0.17483   0.09395
H          H       0.95607   0.44256   0.67957   0.09659
H          H       0.17169   0.90729   0.27593   0.10358
H          H       0.17307   0.08986   0.78727   0.10174
H          H       0.02986   0.78117   0.12928   0.10050
H          H       0.04367   0.21917   0.63710   0.10207
H          H       0.14184   0.41706   0.28290   0.10960
H          H       0.14021   0.59179   0.78842   0.10828
H          H       0.87540   0.31133   0.36445   0.09946
H          H       0.86944   0.69269   0.86708   0.09634
H          H       0.95533   0.07373   0.40515   0.11512
H          H       0.94368   0.93181   0.90801   0.11404
H          H       0.22183   0.18383   0.32357   0.11095
H          H       0.21539   0.82383   0.83052   0.10907
H          H       0.80688   0.71126   0.24537   0.09794
H          H       0.80436   0.29379   0.75318   0.09662
H          H       0.93849   0.56124   0.39331   0.10316
H          H       0.94225   0.44339   0.89856   0.10260
H          H       0.71453   0.92090   0.29105   0.11297
H          H       0.71170   0.09082   0.80142   0.11384
H          H       0.84391   0.77094   0.43960   0.11400
H          H       0.84819   0.24045   0.94741   0.11328
H          H       0.83402   0.14925   0.67695   0.06453
H          H       0.84180   0.86634   0.15185   0.06032
H          H       0.05444   0.94714   0.63266   0.05955
H          H       0.03912   0.07530   0.12786   0.06301
H          H       0.26800   0.96128   0.35640   0.06193
H          H       0.25905   0.03448   0.86641   0.06005
H          H       0.74616   0.15261   0.33908   0.06865
H          H       0.74524   0.86194   0.85092   0.06635
H          H       0.06479   0.72124   0.57343   0.10794
H          H       0.04582   0.34037   0.08324   0.10716
H          H       0.36066   0.51453   0.66948   0.13070
H          H       0.38214   0.42058   0.15522   0.12504
H          H       0.14626   0.47023   0.54401   0.11785
H          H       0.13617   0.58708   0.06112   0.11328
H          H       0.27888   0.76844   0.69881   0.11024
H          H       0.28963   0.17594   0.17882   0.10476
H          H       0.37658   0.73516   0.35621   0.10232
H          H       0.36674   0.25317   0.86233   0.10252
H          H       0.13293   0.40322   0.44958   0.11714
H          H       0.13814   0.59491   0.96415   0.11673
H          H       0.41785   0.45364   0.38092   0.12776
H          H       0.41681   0.52724   0.88897   0.12676
H          H       0.09448   0.68764   0.42795   0.10734
H          H       0.09120   0.31867   0.93977   0.10774
H          H       0.62451   0.11104   0.47300   0.10278
H          H       0.61212   0.90428   0.98270   0.10061
H          H       0.62310   0.65235   0.39115   0.11799
H          H       0.62420   0.36598   0.90016   0.11871
H          H       0.54579   0.33932   0.51984   0.13042
H          H       0.52743   0.67628   0.02560   0.13171
H          H       0.69688   0.42474   0.34450   0.09460
H          H       0.70229   0.59359   0.85674   0.09437
H          H       0.72032   0.65405   0.61626   0.12048
H          H       0.73132   0.36214   0.09416   0.12376
H          H       0.56186   0.13112   0.64929   0.09568
H          H       0.56949   0.83989   0.17181   0.10217
H          H       0.81996   0.42062   0.64319   0.09668
H          H       0.82682   0.60485   0.11330   0.10374
H          H       0.46059   0.36459   0.61876   0.11899
H          H       0.47037   0.60170   0.14827   0.12219
H          H       0.39027   0.98556   0.43457   0.10862
H          H       0.38240   0.03446   0.93967   0.10564
H          H       0.42152   0.98513   0.62960   0.11684
H          H       0.44060  -0.00128   0.13277   0.11550
H          H       0.58655   0.86031   0.62049   0.07649
H          H       0.60496   0.12514   0.11750   0.08113
H          H       0.62025   0.77275   0.55913   0.08253
H          H       0.62476   0.22735   0.05655   0.08005
H          H       0.60841   0.82881   0.46609   0.07748
H          H       0.60351   0.19417   0.96965   0.07478
H          H       0.50322   0.78901   0.42630   0.07684
H          H       0.49677   0.22841   0.93027   0.07766
H          H       0.28843   0.16389   0.63763   0.08698
H          H       0.30261   0.83244   0.14298   0.08675
H          H       0.20206   0.18163   0.58471   0.06948
H          H       0.21458   0.81726   0.09114   0.07065
H          H       0.24060   0.28929   0.50461   0.07297
H          H       0.23303   0.73215   0.01186   0.07106
H          H       0.19810   0.12647   0.46488   0.08453
H          H       0.20921   0.88407   0.96357   0.08503
C          C       0.88057   0.38432   0.24920   0.06316
C          C       0.87865   0.61390   0.75307   0.05802
C          C       0.77805   0.38013   0.24780  -0.14588
C          C       0.77670   0.62851   0.75718  -0.14421
C          C       0.93129   0.26235   0.22220  -0.11851
C          C       0.92627   0.72164   0.71919  -0.12020
C          C       0.77891   0.12883   0.19918   0.19548
C          C       0.77333   0.86426   0.70058   0.19947
C          C       0.88223   0.13713   0.19826  -0.17110
C          C       0.87504   0.84354   0.69328  -0.16973
C          C       0.72799   0.25553   0.22294  -0.16347
C          C       0.72468   0.75017   0.73120  -0.16461
C          C       0.00685   0.61061   0.25181   0.06389
C          C       0.00951   0.38987   0.75841   0.06464
C          C       0.07256   0.70865   0.27983  -0.11693
C          C       0.07384   0.29146   0.78807  -0.11718
C          C       0.10339   0.86434   0.20047   0.19660
C          C       0.11131   0.13340   0.71025   0.19555
C          C       0.99485   0.63549   0.19721  -0.13983
C          C       0.00231   0.36412   0.70368  -0.14264
C          C       0.12181   0.82977   0.25437  -0.14500
C          C       0.12510   0.16847   0.76427  -0.14428
C          C       0.04154   0.76192   0.17159  -0.19372
C          C       0.05188   0.23736   0.67957  -0.18917
C          C       0.00189   0.38124   0.31967   0.06098
C          C      -0.00157   0.62483   0.82376   0.06527
C          C       0.10055   0.34384   0.31019  -0.12825
C          C       0.09680   0.66372   0.81529  -0.12867
C          C       0.95190   0.28529   0.35617  -0.13136
C          C       0.94557   0.72041   0.85937  -0.13459
C          C       0.09358   0.10780   0.36689   0.19498
C          C       0.08429   0.89842   0.87217   0.19402
C          C       0.99641   0.15218   0.37933  -0.14900
C          C       0.98695   0.85388   0.88290  -0.14718
C          C       0.14610   0.21058   0.33342  -0.16601
C          C       0.13950   0.79661   0.83937  -0.16715
C          C       0.87841   0.61706   0.31590   0.04988
C          C       0.87922   0.38722   0.82220   0.05055
C          C       0.81482   0.72205   0.28813  -0.11672
C          C       0.81413   0.28379   0.79589  -0.11589
C          C       0.77409   0.86270   0.36898   0.20394
C          C       0.77424   0.14961   0.87829   0.20051
C          C       0.88859   0.63795   0.37073  -0.12909
C          C       0.89105   0.36797   0.87707  -0.12766
C          C       0.76334   0.84239   0.31379  -0.17291
C          C       0.76222   0.16763   0.82302  -0.17458
C          C       0.83620   0.75660   0.39698  -0.16774
C          C       0.83853   0.25340   0.90480  -0.16695
C          C       0.94188   0.49855   0.28427   0.01476
C          C       0.94169   0.50327   0.78923   0.01273
C          C       0.75600   0.12566   0.66868   0.07863
C          C       0.76260   0.87738   0.15860   0.07368
C          C       0.12219   0.91187   0.65401   0.06849
C          C       0.11167   0.09467   0.14621   0.07221
C          C       0.20982   0.89671   0.37714   0.06916
C          C       0.20034   0.10295   0.88579   0.06635
C          C       0.71397   0.12194   0.37749   0.08212
C          C       0.71265   0.89426   0.88907   0.08373
C          C       0.12925   0.67573   0.59469  -0.10639
C          C       0.11960   0.35791   0.09910  -0.10661
C          C       0.29548   0.56036   0.64918  -0.18260
C          C       0.30825   0.40339   0.14023  -0.19279
C          C       0.17405   0.53435   0.57835  -0.20013
C          C       0.16998   0.49738   0.08683  -0.21249
C          C       0.25853   0.47864   0.60489   0.25875
C          C       0.26568   0.51851   0.10645   0.26723
C          C       0.25088   0.70135   0.66510  -0.08559
C          C       0.25772   0.26632   0.15265  -0.08140
C          C       0.16817   0.76267   0.63758   0.03435
C          C       0.16316   0.23983   0.13164   0.03114
C          C       0.32382   0.66325   0.37759  -0.10834
C          C       0.31774   0.32704   0.88582  -0.10855
C          C       0.18766   0.47812   0.43128  -0.22260
C          C       0.18969   0.51881   0.94352  -0.22526
C          C       0.34714   0.50604   0.39055  -0.19364
C          C       0.34581   0.48009   0.89980  -0.19584
C          C       0.27983   0.41332   0.41866   0.27047
C          C       0.28273   0.57634   0.93002   0.27329
C          C       0.16542   0.63578   0.41838  -0.08980
C          C       0.16281   0.36469   0.92942  -0.08162
C          C       0.23331   0.73270   0.39194   0.02688
C          C       0.22667   0.26422   0.90123   0.02380
C          C       0.62201   0.22915   0.45509  -0.08386
C          C       0.61321   0.78688   0.96454  -0.08540
C          C       0.62078   0.53429   0.40888  -0.23621
C          C       0.61915   0.48324   0.91808  -0.23515
C          C       0.57876   0.35525   0.48127  -0.19333
C          C       0.56666   0.66060   0.98876  -0.19160
C          C       0.57750   0.50882   0.45818   0.26356
C          C       0.56888   0.50778   0.96549   0.26036
C          C       0.66286   0.40499   0.38262  -0.10040
C          C       0.66387   0.61275   0.89364  -0.10191
C          C       0.66446   0.25113   0.40490   0.01307
C          C       0.66187   0.76615   0.91598   0.01629
C          C       0.68484   0.54031   0.62268  -0.22647
C          C       0.69485   0.46678   0.11006  -0.22539
C          C       0.59541   0.24605   0.64180  -0.08586
C          C       0.60338   0.73538   0.15408  -0.08540
C          C       0.74105   0.40766   0.63820  -0.10071
C          C       0.74864   0.60389   0.12133  -0.10419
C          C       0.69799   0.25924   0.64861   0.01526
C          C       0.70476   0.73976   0.14375   0.02099
C          C       0.53892   0.37536   0.62607  -0.21201
C          C       0.54888   0.60220   0.14218  -0.20731
C          C       0.58281   0.52484   0.61693   0.27075
C          C       0.59388   0.46567   0.12009   0.27547
C          C       0.33593   0.08471   0.50661   0.05347
C          C       0.33939   0.92029   0.01179   0.04890
C          C       0.47896   0.88894   0.55739   0.04536
C          C       0.48618   0.10854   0.06029   0.04713
C          C       0.39727   0.98489   0.47750  -0.17220
C          C       0.39488   0.02701   0.98221  -0.16354
C          C       0.46834   0.88685   0.50183   0.05071
C          C       0.46730   0.12209   0.00551   0.04996
C          C       0.41489   0.98482   0.58657  -0.16452
C          C       0.42739   0.00706   0.09024  -0.16391
C          C       0.34350   0.08255   0.56227   0.02983
C          C       0.35357   0.91388   0.06705   0.03704
C          C       0.55875   0.79542   0.58569  -0.02033
C          C       0.56973   0.19715   0.08608  -0.02079
C          C       0.53231   0.78542   0.46712  -0.02508
C          C       0.52586   0.23133   0.97105  -0.03033
C          C       0.28043   0.19109   0.59518  -0.01980
C          C       0.29309   0.80475   0.10072  -0.02154
C          C       0.26307   0.19256   0.47835  -0.02679
C          C       0.26684   0.81378   0.98380  -0.02469
N          N       0.72267   0.00165   0.18042  -0.32124
N          N       0.71675   0.98846   0.67882  -0.31837
N          N       0.14972   0.00033   0.18163  -0.30217
N          N       0.15778   0.99419   0.69286  -0.30185
N          N       0.12445   0.95886   0.38644  -0.31091
N          N       0.11316   0.04650   0.89257  -0.31303
N          N       0.72416   0.98013   0.39762  -0.31958
N          N       0.72337   0.03657   0.90829  -0.31864
O          O       0.51872   0.64345   0.60271  -0.19280
O          O       0.53163   0.34323   0.10963  -0.19221
O          O       0.53122   0.62368   0.48701  -0.18387
O          O       0.51869   0.39190   0.99174  -0.18364
O          O       0.31310   0.35343   0.58437  -0.22505
O          O       0.32547   0.64164   0.09063  -0.22172
O          O       0.31032   0.26265   0.43259  -0.20245
O          O       0.31962   0.72129   0.94440  -0.19429

