data_crystal

_audit_creation_method 'AiiDA-DDEC plugin'

_cell_length_a        12.71245
_cell_length_b         7.87295
_cell_length_c        23.97268

_cell_angle_alpha     90.12268
_cell_angle_beta     96.32117
_cell_angle_gamma     89.99815

_symmetry_space_group_name_Hall 'P 1'
_symmetry_space_group_name_H-M  'P 1'

loop_
_symmetry_equiv_pos_as_xyz
 'x,y,z'

loop_
_atom_site_label
_atom_site_type_symbol
_atom_site_fract_x
_atom_site_fract_y
_atom_site_fract_z
_atom_site_charge
H          H       0.72465   0.41080   0.23982   0.09296
H          H       0.72248   0.57799   0.73534   0.09327
H          H       0.04483   0.26958   0.22064   0.10130
H          H       0.04014   0.75486   0.72789   0.10358
H          H       0.97952   0.02671   0.16064   0.09817
H          H       0.97200   0.99219   0.66676   0.09809
H          H       0.65944   0.16305   0.18231   0.10605
H          H       0.65395   0.82022   0.67666   0.10639
H          H       0.09327   0.61751   0.35496   0.09742
H          H       0.08747   0.38045   0.85450   0.09785
H          H       0.98423   0.58022   0.17945   0.10683
H          H       0.98331   0.43364   0.67895   0.10682
H          H       0.23022   0.82588   0.33359   0.10106
H          H       0.22316   0.17064   0.83189   0.10179
H          H       0.11640   0.79124   0.15852   0.09575
H          H       0.11236   0.21787   0.65679   0.09743
H          H       0.13222   0.33965   0.32991   0.11153
H          H       0.13023   0.66192   0.83018   0.11249
H          H       0.79870   0.31466   0.34561   0.09460
H          H       0.79752   0.68963   0.84755   0.09534
H          H       0.82982   0.07358   0.41048   0.11001
H          H       0.83028   0.93360   0.91149   0.10871
H          H       0.16351   0.10456   0.39553   0.10365
H          H       0.16309   0.90053   0.89477   0.10402
H          H       0.80125   0.68775   0.21615   0.10046
H          H       0.80379   0.31056   0.71601   0.10002
H          H       0.89315   0.57344   0.39021   0.10054
H          H       0.88848   0.43269   0.89033   0.10207
H          H       0.67510   0.89918   0.24295   0.10644
H          H       0.67938   0.09584   0.74200   0.10701
H          H       0.76513   0.78535   0.41710   0.10789
H          H       0.76108   0.21890   0.91638   0.10755
H          H       0.86087   0.06141   0.57466   0.07830
H          H       0.85904   0.94435   0.07177   0.07735
H          H       0.14269   0.92950   0.67339   0.05665
H          H       0.14599   0.07257   0.17706   0.05657
H          H       0.15086   0.85429   0.41449   0.05110
H          H       0.15132   0.15244   0.91292   0.05141
H          H       0.66653   0.16263   0.29413   0.06839
H          H       0.67059   0.83480   0.79346   0.06852
H          H       0.17502   0.70682   0.61471   0.10651
H          H       0.17639   0.29006   0.11587   0.10820
H          H       0.52825   0.59545   0.71825   0.11867
H          H       0.52952   0.41481   0.21730   0.11908
H          H       0.28163   0.46418   0.58783   0.11548
H          H       0.28098   0.53186   0.08692   0.11624
H          H       0.42392   0.84877   0.74310   0.10774
H          H       0.42706   0.16254   0.24520   0.10748
H          H       0.25268   0.62453   0.43793   0.09807
H          H       0.25512   0.38213   0.93697   0.09944
H          H       0.97337   0.34186   0.53217   0.11625
H          H       0.97540   0.66326   0.03233   0.11796
H          H       0.27901   0.33054   0.47183   0.11689
H          H       0.28064   0.67634   0.97129   0.11667
H          H       0.94490   0.63900   0.49703   0.11218
H          H       0.94806   0.36567   0.99698   0.11163
H          H       0.52934   0.08781   0.42272   0.09211
H          H       0.52596   0.90900   0.91975   0.09183
H          H       0.52130   0.68238   0.35443   0.12626
H          H       0.52858   0.31168   0.85366   0.12555
H          H       0.44836   0.31197   0.47733   0.12271
H          H       0.44491   0.68433   0.97375   0.12387
H          H       0.60609   0.46059   0.30346   0.09652
H          H       0.61477   0.53395   0.80359   0.09461
H          H       0.74370   0.49286   0.44327   0.13067
H          H       0.73944   0.50610   0.94317   0.12851
H          H       0.67910   0.36687   0.63972   0.10842
H          H       0.68907   0.63144   0.14158   0.10660
H          H       0.81744   0.23085   0.48992   0.10135
H          H       0.81413   0.77069   0.98815   0.10140
H          H       0.60846   0.63183   0.59416   0.12253
H          H       0.61984   0.36334   0.09781   0.12378
H          H       0.26397   0.94348   0.47707   0.09989
H          H       0.26659   0.05726   0.97733   0.10013
H          H       0.58231   0.06143   0.60825   0.10889
H          H       0.58423   0.93887   0.10868   0.11048
H          H       0.68249   0.87053   0.56220   0.08386
H          H       0.68421   0.12971   0.06360   0.08249
H          H       0.66801   0.98265   0.49784   0.09353
H          H       0.67266   0.01701  -0.00064   0.09157
H          H       0.51101   0.83024   0.42206   0.08303
H          H       0.51496   0.16472   0.92210   0.08221
H          H       0.37048   0.83609   0.40899   0.07567
H          H       0.37473   0.15394   0.90809   0.07823
H          H       0.45578   0.13583   0.67938   0.09227
H          H       0.45900   0.86204   0.17986   0.09076
H          H       0.33339   0.22962   0.65516   0.07738
H          H       0.33544   0.77320   0.15555   0.07785
H          H       0.21524   0.21854   0.59673   0.06520
H          H       0.21835   0.78052   0.09624   0.06601
H          H       0.18006   0.00225   0.58667   0.08392
H          H       0.18307  -0.00253   0.08912   0.08270
C          C       0.88977   0.35720   0.23556   0.05840
C          C       0.88645   0.64837   0.73648   0.05747
C          C       0.78106   0.32746   0.22256  -0.13818
C          C       0.77779   0.66769   0.72028  -0.13781
C          C       0.96003   0.24989   0.21079  -0.11827
C          C       0.95555   0.76462   0.71485  -0.11723
C          C       0.81465   0.07729   0.16746   0.20527
C          C       0.80801   0.92263   0.66706   0.19935
C          C       0.92365   0.11366   0.17685  -0.17113
C          C       0.91765   0.89787   0.68026  -0.16964
C          C       0.74398   0.18896   0.18998  -0.18101
C          C       0.73888   0.80329   0.68689  -0.18024
C          C       0.02742   0.58458   0.26909   0.06021
C          C       0.02464   0.42158   0.76861   0.06030
C          C       0.09868   0.65512   0.31183  -0.12379
C          C       0.09408   0.34634   0.81109  -0.12315
C          C       0.18040   0.83008   0.24513   0.20535
C          C       0.17511   0.17341   0.74327   0.20487
C          C       0.03665   0.63486   0.21376  -0.12120
C          C       0.03450   0.37512   0.71293  -0.12427
C          C       0.17523   0.77214   0.30020  -0.15644
C          C       0.16951   0.22829   0.79877  -0.15524
C          C       0.11141   0.75554   0.20191  -0.18678
C          C       0.10766   0.25220   0.70038  -0.18710
C          C       0.96254   0.34510   0.33168   0.06926
C          C       0.96076   0.65881   0.83245   0.06779
C          C       0.06488   0.28272   0.34713  -0.13176
C          C       0.06344   0.72064   0.84743  -0.13613
C          C       0.87893   0.26871   0.35634  -0.13069
C          C       0.87787   0.73601   0.85756  -0.13031
C          C      -0.00219   0.06525   0.40672   0.19990
C          C      -0.00199   0.94066   0.90682   0.20208
C          C       0.89601   0.13419   0.39341  -0.14602
C          C       0.89592   0.87187   0.89419  -0.14474
C          C       0.08251   0.14674   0.38434  -0.15740
C          C       0.08199   0.85801   0.88413  -0.15792
C          C       0.85342   0.60687   0.30098   0.05368
C          C       0.85197   0.39592   0.80103   0.05404
C          C       0.79246   0.70460   0.26042  -0.12821
C          C       0.79372   0.29475   0.76017  -0.12603
C          C       0.71040   0.85668   0.33257   0.20220
C          C       0.71057   0.14221   0.83169   0.19812
C          C       0.84419   0.64155   0.35762  -0.12862
C          C       0.84118   0.36231   0.85751  -0.13305
C          C       0.72149   0.82708   0.27560  -0.17038
C          C       0.72370   0.17028   0.77490  -0.16639
C          C       0.77264   0.76105   0.37310  -0.16300
C          C       0.77040   0.24092   0.87248  -0.15939
C          C       0.93424   0.47549   0.28403   0.01622
C          C       0.93168   0.52954   0.78447   0.01556
C          C       0.79973   0.12810   0.59557   0.07267
C          C       0.80283   0.87362   0.09485   0.06975
C          C       0.22262   0.93152   0.69638   0.07253
C          C       0.22674   0.07156   0.19892   0.07020
C          C       0.08550   0.81956   0.43869   0.06281
C          C       0.08688   0.18684   0.93784   0.06389
C          C       0.62850   0.12491   0.33125   0.07578
C          C       0.63090   0.87213   0.83014   0.07791
C          C       0.25273   0.68396   0.63747  -0.10099
C          C       0.25401   0.31567   0.13839  -0.10282
C          C       0.45168   0.62354   0.69531  -0.20093
C          C       0.45295   0.38293   0.19505  -0.20279
C          C       0.31146   0.54483   0.62284  -0.20070
C          C       0.31163   0.45419   0.12243  -0.19922
C          C       0.41000   0.51051   0.65296   0.26578
C          C       0.41034   0.49156   0.15189   0.26687
C          C       0.39341   0.76410   0.70914  -0.08849
C          C       0.39582   0.24303   0.21037  -0.08796
C          C       0.29155   0.79449   0.68127   0.02814
C          C       0.29423   0.20869   0.18277   0.02927
C          C       0.19119   0.56425   0.45887  -0.10626
C          C       0.19352   0.44210   0.95808  -0.10393
C          C       0.03375   0.40674   0.51152  -0.19901
C          C       0.03601   0.59906   0.01157  -0.19776
C          C       0.20699   0.39890   0.47790  -0.19617
C          C       0.20889   0.60745   0.97748  -0.19682
C          C       0.12706   0.31859   0.50361   0.25274
C          C       0.12916   0.68747   0.00355   0.24878
C          C       0.01844   0.57234   0.49223  -0.08625
C          C       0.02114   0.43335   0.99205  -0.08328
C          C       0.09736   0.65395   0.46498   0.03292
C          C       0.09971   0.35243   0.96429   0.02820
C          C       0.52391   0.21730   0.40762  -0.09474
C          C       0.52312   0.77895   0.90501  -0.09506
C          C       0.52010   0.55232   0.36936  -0.21788
C          C       0.52535   0.44234   0.86807  -0.21982
C          C       0.47847   0.34179   0.43771  -0.19816
C          C       0.47759   0.65423   0.93480  -0.19738
C          C       0.47614   0.51098   0.41876   0.26563
C          C       0.47804   0.48423   0.91648   0.26786
C          C       0.56719   0.42476   0.33998  -0.09864
C          C       0.57277   0.57020   0.83905  -0.09570
C          C       0.56967   0.25527   0.35815   0.01914
C          C       0.57205   0.74070   0.85646   0.01678
C          C       0.73254   0.46622   0.48671  -0.20059
C          C       0.73173   0.53334   0.98698  -0.19836
C          C       0.69549   0.39714   0.59733  -0.08260
C          C       0.70268   0.60153   0.09871  -0.08001
C          C       0.77279   0.31959   0.51302  -0.10370
C          C       0.77215   0.68143   0.01238  -0.10421
C          C       0.75642   0.28308   0.56897   0.01356
C          C       0.75939   0.71766   0.06887   0.01346
C          C       0.65613   0.54602   0.57182  -0.20741
C          C       0.66365   0.45106   0.07414  -0.20580
C          C       0.67697   0.58328   0.51682   0.26744
C          C       0.67974   0.41534   0.01831   0.26346
C          C       0.32348   0.06688   0.55360   0.02631
C          C       0.32566   0.93628   0.05423   0.02895
C          C       0.52227   0.93442   0.53165   0.04171
C          C       0.52499   0.06419   0.03187   0.04220
C          C       0.33459   0.96891   0.50574  -0.17516
C          C       0.33709   0.03228   0.00612  -0.17238
C          C       0.43170   0.90307   0.49360   0.04331
C          C       0.43465   0.09578   0.99364   0.04183
C          C       0.51196   0.03465   0.57917  -0.17497
C          C       0.51415   0.96600   0.07957  -0.17618
C          C       0.41466   0.10331   0.59075   0.03565
C          C       0.41661   0.89967   0.09132   0.03611
C          C       0.63352   0.88183   0.52193  -0.02449
C          C       0.63628   0.11722   0.02301  -0.02108
C          C       0.43740   0.80322   0.44029  -0.03147
C          C       0.44052   0.19167   0.93954  -0.03227
C          C       0.41326   0.20573   0.64418  -0.01542
C          C       0.41515   0.79576   0.14413  -0.01764
C          C       0.21312   0.11292   0.56690  -0.01920
C          C       0.21575   0.88923   0.06773  -0.02095
N          N       0.77276   0.92962   0.14131  -0.29397
N          N       0.76435   0.06768   0.64008  -0.29354
N          N       0.25452   0.95721   0.23632  -0.29521
N          N       0.24874   0.04565   0.73421  -0.29772
N          N       0.00376   0.91707   0.43937  -0.28763
N          N       0.00521   0.08956   0.93928  -0.29014
N          N       0.64268   0.97585   0.35345  -0.30193
N          N       0.64289   0.02210   0.85214  -0.30294
O          O       0.64534   0.72982   0.48916  -0.19356
O          O       0.64598   0.26964   0.99073  -0.19071
O          O       0.43209   0.62407   0.45301  -0.18933
O          O       0.43256   0.37206   0.95037  -0.19041
O          O       0.46858   0.36950   0.64195  -0.22365
O          O       0.46837   0.63134   0.13911  -0.22703
O          O       0.13542   0.14995   0.51971  -0.22747
O          O       0.13804   0.85601   0.02019  -0.22700

