data_crystal

_audit_creation_method 'AiiDA-DDEC plugin'

_cell_length_a        61.08281
_cell_length_b        43.69975
_cell_length_c         8.09294

_cell_angle_alpha     89.42542
_cell_angle_beta     73.85996
_cell_angle_gamma     90.05816

_symmetry_space_group_name_Hall 'P 1'
_symmetry_space_group_name_H-M  'P 1'

loop_
_symmetry_equiv_pos_as_xyz
 'x,y,z'

loop_
_atom_site_label
_atom_site_type_symbol
_atom_site_fract_x
_atom_site_fract_y
_atom_site_fract_z
_atom_site_charge
H          H       0.15308   0.23696   0.10479   0.12307
H          H       0.84782   0.76920   0.08737   0.12327
H          H       0.84672   0.23832   0.34494   0.12170
H          H       0.14693   0.76555   0.44200   0.12048
H          H       0.11631   0.21177   0.10970   0.10827
H          H       0.88505   0.79455   0.06637   0.10752
H          H       0.88266   0.21198   0.34702   0.10842
H          H       0.11047   0.79230   0.45826   0.10600
H          H       0.13451   0.13310   0.36600   0.11996
H          H       0.85142   0.86179   0.43298   0.11626
H          H       0.86294   0.13409   0.10073   0.12057
H          H       0.14641   0.86090   0.10061   0.11801
H          H       0.17193   0.15779   0.35569   0.12703
H          H       0.81372   0.83708   0.45144   0.12782
H          H       0.82623   0.15972   0.10536   0.12551
H          H       0.18331   0.83474   0.08762   0.12363
H          H       0.39838   0.33624   0.34154   0.06788
H          H       0.58733   0.66415   0.34695   0.06032
H          H       0.59817   0.33445   0.16366   0.06763
H          H       0.41129   0.66294   0.11221   0.06054
H          H       0.08167   0.07965   0.46937   0.11877
H          H       0.90072   0.91067   0.51719   0.12390
H          H       0.91421   0.07734   0.02848   0.11864
H          H       0.09732   0.91068   0.00093   0.12329
H          H       0.04853   0.04871   0.45445   0.10255
H          H       0.93630   0.93970   0.49824   0.10819
H          H       0.94741   0.04688   0.04629   0.10119
H          H       0.06224   0.94032   0.01538   0.10814
H          H       0.02766   0.12162   0.17067   0.10288
H          H       0.97319   0.87852   0.10646   0.10318
H          H       0.96910   0.12099   0.31105   0.10403
H          H       0.02423   0.87915   0.41131   0.10274
H          H       0.05891   0.15318   0.20297   0.10994
H          H       0.93846   0.84846   0.13453   0.10784
H          H       0.93811   0.15223   0.27255   0.11023
H          H       0.05853   0.84891   0.39075   0.10734
H          H       0.44241   0.46937   0.26342   0.11105
H          H       0.55553   0.52448   0.20795   0.10653
H          H       0.55509   0.46939   0.21626   0.11056
H          H       0.44209   0.52449   0.27321   0.10643
H          H       0.64300   0.73197   0.41971   0.12164
H          H       0.33725   0.26806   0.35382   0.12609
H          H       0.35703   0.73391   0.04464   0.12385
H          H       0.66054   0.26950   0.15847   0.12594
H          H       0.60706   0.70522   0.41978   0.10728
H          H       0.37381   0.29127   0.36948   0.10845
H          H       0.39250   0.70544   0.04082   0.10646
H          H       0.62320   0.29073   0.14562   0.10865
H          H       0.64504   0.63729   0.07782   0.12015
H          H       0.36093   0.37077   0.09348   0.12066
H          H       0.35390   0.64048   0.40984   0.12032
H          H       0.63670   0.37324   0.38721   0.12073
H          H       0.68146   0.66345   0.08051   0.12527
H          H       0.32341   0.34861   0.08768   0.12130
H          H       0.31793   0.66812   0.41070   0.12285
H          H       0.67457   0.35250   0.39360   0.12251
H          H       0.90678   0.83514   0.12981   0.06221
H          H       0.09324   0.16530   0.14505   0.06774
H          H       0.08983   0.83420   0.39464   0.06190
H          H       0.90396   0.16461   0.32756   0.06660
H          H       0.59712   0.58609   0.97122   0.12349
H          H       0.41500   0.42098   0.01563   0.11939
H          H       0.40134   0.58693   0.50764   0.12393
H          H       0.58156   0.42085   0.46927   0.11774
H          H       0.56247   0.55501   0.98804   0.10760
H          H       0.44955   0.44857   0.03373   0.09936
H          H       0.43553   0.55487   0.48782   0.10953
H          H       0.54730   0.44816   0.44436   0.10025
H          H       0.52391   0.61356   0.38806   0.10318
H          H       0.46725   0.37212   0.30936   0.10519
H          H       0.47477   0.61479   0.08968   0.10310
H          H       0.53042   0.37198   0.16925   0.10243
H          H       0.55768   0.64497   0.36561   0.10688
H          H       0.43429   0.34379   0.27587   0.11034
H          H       0.44154   0.64756   0.11844   0.10682
H          H       0.56310   0.34394   0.20901   0.10935
H          H       0.94271   0.96797   0.26636   0.10547
H          H       0.05438   0.02447   0.24605   0.11013
H          H       0.05474   0.96937   0.24374   0.10534
H          H       0.94265   0.02310   0.25785   0.11049
H          H       0.99832   0.10157   0.24170   0.10353
H          H       0.99906   0.89078   0.25712   0.10243
H          H       0.49908   0.60246   0.23713   0.10094
H          H       0.49879   0.39155   0.23605   0.10668
H          H       0.15591   0.23516   0.60930   0.12212
H          H       0.84930   0.76735   0.59130   0.12312
H          H       0.84820   0.23854   0.84657   0.12249
H          H       0.15150   0.77181   0.93457   0.12239
H          H       0.11982   0.20866   0.60962   0.10819
H          H       0.88627   0.79318   0.56846   0.10497
H          H       0.88462   0.21342   0.85132   0.10770
H          H       0.11444   0.79735   0.95666   0.10610
H          H       0.13801   0.13174   0.87796   0.11712
H          H       0.85210   0.86191   0.92330   0.11955
H          H       0.86644   0.13418   0.60672   0.11980
H          H       0.14775   0.86282   0.56803   0.11502
H          H       0.17511   0.15734   0.86948   0.12491
H          H       0.81467   0.83668   0.94371   0.12713
H          H       0.82948   0.15892   0.60586   0.12311
H          H       0.18527   0.83789   0.54857   0.12604
H          H       0.40423   0.32850   0.83977   0.06678
H          H       0.58734   0.66374   0.86373   0.06092
H          H       0.60095   0.33448   0.65827   0.06778
H          H       0.40922   0.65666   0.62680   0.06082
H          H       0.08503   0.07708   0.97184   0.11885
H          H       0.90115   0.91079   0.01211   0.12369
H          H       0.91793   0.07974   0.52699   0.11783
H          H       0.09767   0.91199   0.49070   0.12332
H          H       0.05128   0.04720   0.96020   0.10071
H          H       0.93637   0.94054   0.99463   0.10818
H          H       0.95090   0.04896   0.54769   0.10169
H          H       0.06200   0.94086   0.51152   0.10759
H          H       0.03075   0.12132   0.68231   0.10467
H          H       0.97411   0.87956   0.60502   0.10202
H          H       0.97145   0.12189   0.82708   0.10237
H          H       0.02561   0.87874   0.90866   0.10423
H          H       0.06253   0.15196   0.71356   0.11064
H          H       0.93969   0.84920   0.62936   0.10987
H          H       0.94069   0.15341   0.78671   0.10943
H          H       0.06044   0.84890   0.87921   0.10843
H          H       0.44550   0.46728   0.75306   0.11113
H          H       0.55772   0.52484   0.70715   0.10604
H          H       0.55774   0.46979   0.72084   0.11040
H          H       0.44466   0.52243   0.75929   0.10675
H          H       0.64230   0.73253   0.94487   0.12227
H          H       0.34097   0.26320   0.86465   0.12604
H          H       0.35397   0.72558   0.56401   0.12203
H          H       0.66282   0.26794   0.64777   0.12638
H          H       0.60652   0.70560   0.94211   0.10676
H          H       0.37814   0.28492   0.87564   0.10718
H          H       0.38982   0.69794   0.55543   0.10737
H          H       0.62609   0.29034   0.63127   0.10710
H          H       0.64479   0.64216   0.56945   0.11655
H          H       0.36510   0.36648   0.61605   0.11915
H          H       0.35288   0.63475   0.94395   0.11740
H          H       0.63879   0.37032   0.89604   0.11892
H          H       0.68096   0.66847   0.57575   0.12114
H          H       0.32754   0.34517   0.60884   0.12342
H          H       0.31649   0.66147   0.94842   0.12218
H          H       0.67628   0.34874   0.90636   0.12386
H          H       0.90797   0.83411   0.62944   0.06211
H          H       0.09730   0.16212   0.64576   0.06718
H          H       0.09270   0.83740   0.88883   0.06325
H          H       0.90736   0.16730   0.82671   0.06577
H          H       0.59837   0.58767   0.47537   0.12459
H          H       0.41859   0.41534   0.52318   0.11854
H          H       0.40269   0.58141   0.02133   0.12410
H          H       0.58576   0.42037   0.96656   0.11902
H          H       0.56441   0.55528   0.49311   0.11006
H          H       0.45272   0.44444   0.53672   0.10027
H          H       0.43793   0.55088   0.99061   0.10680
H          H       0.55136   0.44816   0.94732   0.09944
H          H       0.52415   0.61471   0.88030   0.10316
H          H       0.47089   0.37095   0.83052   0.10129
H          H       0.47443   0.61321   0.59463   0.10355
H          H       0.53288   0.37200   0.68039   0.10398
H          H       0.55715   0.64801   0.85248   0.10743
H          H       0.43847   0.34117   0.80245   0.10973
H          H       0.44015   0.64424   0.63223   0.10827
H          H       0.56558   0.34344   0.71597   0.11149
H          H       0.94391   0.96986   0.76608   0.10636
H          H       0.05618   0.02347   0.75100   0.10969
H          H       0.05586   0.96840   0.74644   0.10523
H          H       0.94459   0.02499   0.76058   0.11033
H          H       0.00096   0.10204   0.75592   0.10393
H          H       0.99934   0.89116   0.75723   0.10236
H          H       0.49997   0.60152   0.73814   0.10107
H          H       0.50184   0.39074   0.75351   0.10621
C          C       0.26913   0.26591   0.20976  -0.02065
C          C       0.72314   0.73774   0.28467  -0.02084
C          C       0.72976   0.27085   0.27730  -0.01957
C          C       0.27513   0.73976   0.22175  -0.01876
C          C       0.26330   0.23581   0.28160   0.11130
C          C       0.72492   0.76565   0.37243   0.11162
C          C       0.73454   0.24072   0.20695   0.10809
C          C       0.27126   0.76728   0.13573   0.10963
C          C       0.24164   0.22180   0.28746   0.10908
C          C       0.74688   0.77824   0.37113   0.11127
C          C       0.75627   0.22609   0.19106   0.10676
C          C       0.24842   0.77777   0.14783   0.11293
C          C       0.28966   0.28038   0.20812  -0.06495
C          C       0.70250   0.72503   0.27609  -0.06275
C          C       0.70910   0.28547   0.28555  -0.06107
C          C       0.29668   0.72855   0.21791  -0.06424
C          C       0.30732   0.29308   0.21202  -0.06545
C          C       0.68500   0.71325   0.26080  -0.06572
C          C       0.69102   0.29713   0.28302  -0.06843
C          C       0.31470   0.71704   0.22313  -0.06438
C          C       0.32799   0.30664   0.21890   0.12613
C          C       0.66463   0.69936   0.25077   0.12492
C          C       0.66993   0.30950   0.27751   0.12520
C          C       0.33514   0.70269   0.22734   0.12682
C          C       0.14883   0.21439   0.16276  -0.12730
C          C       0.84874   0.78928   0.16342  -0.12679
C          C       0.85039   0.21562   0.29087  -0.12826
C          C       0.14672   0.78630   0.36719  -0.12445
C          C       0.12832   0.20026   0.16649  -0.13085
C          C       0.86943   0.80351   0.15225  -0.12882
C          C       0.87049   0.20082   0.29108  -0.12944
C          C       0.12643   0.80136   0.37582  -0.12728
C          C       0.12291   0.17092   0.24096   0.05552
C          C       0.87059   0.82972   0.24926   0.05870
C          C       0.87520   0.17126   0.22258   0.05291
C          C       0.12603   0.82835   0.27995   0.05808
C          C       0.13885   0.15577   0.30949  -0.11389
C          C       0.85025   0.84165   0.35795  -0.10174
C          C       0.85909   0.15685   0.15372  -0.11387
C          C       0.14684   0.84018   0.17536  -0.10010
C          C       0.15954   0.16940   0.30349  -0.12167
C          C       0.82945   0.82796   0.36803  -0.12653
C          C       0.83874   0.17108   0.15661  -0.11922
C          C       0.16725   0.82565   0.16809  -0.12195
C          C       0.39136   0.34569   0.24046   0.06369
C          C       0.60236   0.65466   0.25343   0.06981
C          C       0.60554   0.34551   0.25747   0.06330
C          C       0.39654   0.65534   0.21679   0.07142
C          C       0.42123   0.38128   0.15405   0.20269
C          C       0.58029   0.61722   0.16875   0.19316
C          C       0.57578   0.38127   0.33197   0.20233
C          C       0.41849   0.61864   0.31020   0.19312
C          C       0.06992   0.08829   0.40080  -0.14767
C          C       0.91668   0.90414   0.42578  -0.14926
C          C       0.92617   0.08637   0.09351  -0.14818
C          C       0.08125   0.90426   0.09258  -0.15102
C          C       0.05141   0.07075   0.38918  -0.13393
C          C       0.93658   0.92061   0.41250  -0.12301
C          C       0.94470   0.06908   0.10721  -0.13282
C          C       0.06157   0.92109   0.10306  -0.12385
C          C       0.03599   0.08145   0.30059   0.06555
C          C       0.95731   0.91240   0.29374   0.06211
C          C       0.96047   0.08027   0.19078   0.06362
C          C       0.04062   0.91301   0.22098   0.06420
C          C       0.03904   0.11208   0.23970  -0.12021
C          C       0.95741   0.88551   0.19870  -0.12498
C          C       0.95755   0.11106   0.24541  -0.11705
C          C       0.04016   0.88606   0.31935  -0.12408
C          C       0.05720   0.12994   0.25428  -0.17095
C          C       0.93764   0.86865   0.21345  -0.17123
C          C       0.93952   0.12879   0.22718  -0.17160
C          C       0.05970   0.86901   0.30837  -0.17000
C          C       0.47955   0.43150   0.21431   0.02810
C          C       0.51979   0.56245   0.21661   0.02714
C          C       0.51797   0.43136   0.25980   0.02850
C          C       0.47824   0.56250   0.25808   0.02486
C          C       0.01855   0.02961   0.25887   0.03420
C          C       0.97826   0.96326   0.26150   0.03087
C          C       0.97851   0.02904   0.23985   0.03354
C          C       0.01938   0.96373   0.24569   0.03197
C          C       0.45832   0.48137   0.25179  -0.12905
C          C       0.53963   0.51257   0.21770  -0.13410
C          C       0.53926   0.48133   0.22563  -0.12908
C          C       0.45805   0.51261   0.26026  -0.13619
C          C       0.76781   0.76363   0.28088  -0.02066
C          C       0.22514   0.23742   0.22078  -0.01609
C          C       0.22857   0.76112   0.24482  -0.01848
C          C       0.77386   0.24087   0.24867  -0.01853
C          C       0.76525   0.73645   0.19858   0.13359
C          C       0.23175   0.26627   0.14760   0.12699
C          C       0.23318   0.73432   0.32447   0.13129
C          C       0.76829   0.26978   0.31987   0.13061
C          C       0.74383   0.72379   0.20376   0.12844
C          C       0.25289   0.27991   0.14226   0.13460
C          C       0.25547   0.72427   0.31387   0.13093
C          C       0.74728   0.28426   0.33192   0.13573
C          C       0.78905   0.77608   0.27693  -0.06493
C          C       0.20415   0.22436   0.22440  -0.06133
C          C       0.20663   0.77198   0.25604  -0.06529
C          C       0.79489   0.22728   0.23795  -0.06214
C          C       0.80725   0.78789   0.27654  -0.06711
C          C       0.18581   0.21282   0.22619  -0.06673
C          C       0.18845   0.78401   0.25840  -0.06496
C          C       0.81319   0.21514   0.23164  -0.06368
C          C       0.82835   0.80148   0.27087   0.12539
C          C       0.16485   0.19904   0.23023   0.12377
C          C       0.16758   0.79835   0.26356   0.12439
C          C       0.83399   0.20079   0.22610   0.12414
C          C       0.64338   0.71141   0.34440  -0.12019
C          C       0.34256   0.29045   0.29693  -0.13067
C          C       0.35642   0.71363   0.12475  -0.12654
C          C       0.65507   0.29203   0.20922  -0.12810
C          C       0.62338   0.69642   0.34388  -0.13271
C          C       0.36300   0.30347   0.30443  -0.12878
C          C       0.37611   0.69769   0.12294  -0.13163
C          C       0.63424   0.30397   0.20332  -0.13084
C          C       0.62379   0.66954   0.24866   0.06098
C          C       0.36992   0.33238   0.22928   0.05257
C          C       0.37540   0.67118   0.22457   0.05862
C          C       0.62727   0.33324   0.26904   0.05407
C          C       0.64497   0.65789   0.15230  -0.10263
C          C       0.35542   0.34843   0.15057  -0.11384
C          C       0.35421   0.66079   0.33031  -0.09844
C          C       0.64209   0.35058   0.33779  -0.11390
C          C       0.66507   0.67243   0.15378  -0.12595
C          C       0.33464   0.33608   0.14725  -0.12129
C          C       0.33437   0.67610   0.33072  -0.12489
C          C       0.66312   0.33912   0.34095  -0.12168
C          C       0.89267   0.84369   0.23515   0.07129
C          C       0.10160   0.15610   0.23887   0.06370
C          C       0.10423   0.84291   0.29056   0.07187
C          C       0.89579   0.15549   0.23314   0.06382
C          C       0.91659   0.87833   0.32320   0.19418
C          C       0.07379   0.11781   0.32744   0.20126
C          C       0.08095   0.87836   0.19822   0.19424
C          C       0.92275   0.11629   0.15796   0.20122
C          C       0.58096   0.59159   0.06342  -0.14786
C          C       0.42633   0.41084   0.08340  -0.15230
C          C       0.41751   0.59247   0.41475  -0.14963
C          C       0.57043   0.41064   0.40072  -0.14759
C          C       0.56157   0.57399   0.07549  -0.12483
C          C       0.44561   0.42637   0.09609  -0.12937
C          C       0.43665   0.57434   0.40104  -0.12510
C          C       0.55130   0.42607   0.38392  -0.13447
C          C       0.54062   0.58105   0.19495   0.06456
C          C       0.46056   0.41368   0.18321   0.05853
C          C       0.45762   0.58142   0.28069   0.06408
C          C       0.53672   0.41343   0.29446   0.06414
C          C       0.53981   0.60762   0.29399  -0.12568
C          C       0.45618   0.38310   0.24216  -0.11640
C          C       0.45879   0.60869   0.18356  -0.12445
C          C       0.54119   0.38293   0.23832  -0.11928
C          C       0.55905   0.62539   0.28153  -0.17080
C          C       0.43718   0.36712   0.22640  -0.17282
C          C       0.43986   0.62708   0.19851  -0.17142
C          C       0.56008   0.36711   0.25769  -0.17085
C          C       0.97832   0.93066   0.27113   0.02840
C          C       0.01754   0.06228   0.27065   0.02653
C          C       0.01961   0.93110   0.23955   0.02783
C          C       0.97918   0.06169   0.22207   0.02525
C          C       0.51969   0.52985   0.22335   0.03353
C          C       0.47868   0.46411   0.23211   0.03234
C          C       0.47812   0.52990   0.25200   0.03415
C          C       0.51893   0.46404   0.24236   0.03191
C          C       0.95837   0.98018   0.26070  -0.13244
C          C       0.03867   0.01247   0.25108  -0.13238
C          C       0.03904   0.98121   0.24627  -0.13230
C          C       0.95847   0.01142   0.25231  -0.13071
C          C       0.99835   0.07677   0.24443  -0.17696
C          C       0.99901   0.91567   0.25582  -0.19122
C          C       0.99862   0.01296   0.25026   0.00101
C          C       0.99876   0.97999   0.25236   0.00786
C          C       0.49906   0.57757   0.23709  -0.18940
C          C       0.49878   0.41640   0.23647  -0.17636
C          C       0.49889   0.51344   0.23727   0.00690
C          C       0.49884   0.48049   0.23705   0.00096
C          C       0.27210   0.26467   0.72263  -0.02227
C          C       0.72316   0.73941   0.78885  -0.01755
C          C       0.73172   0.26780   0.77748  -0.01806
C          C       0.27481   0.73588   0.72804  -0.01747
C          C       0.26630   0.23394   0.78558   0.11014
C          C       0.72561   0.76714   0.87667   0.10897
C          C       0.73709   0.23824   0.70020   0.10587
C          C       0.27373   0.76415   0.63831   0.10956
C          C       0.24443   0.22056   0.79191   0.10581
C          C       0.74788   0.77885   0.87358   0.11236
C          C       0.75892   0.22400   0.68410   0.10617
C          C       0.25210   0.77760   0.63807   0.10805
C          C       0.29289   0.27818   0.72233  -0.06470
C          C       0.70213   0.72765   0.78252  -0.06873
C          C       0.71087   0.28205   0.78866  -0.06499
C          C       0.29515   0.72234   0.73725  -0.06400
C          C       0.31093   0.28975   0.72803  -0.06695
C          C       0.68431   0.71618   0.77086  -0.05927
C          C       0.69283   0.29388   0.78592  -0.06510
C          C       0.31244   0.70969   0.75096  -0.06535
C          C       0.33180   0.30253   0.73552   0.12228
C          C       0.66397   0.70220   0.76115   0.12378
C          C       0.67197   0.30672   0.77878   0.12519
C          C       0.33282   0.69532   0.75676   0.12345
C          C       0.15187   0.21268   0.66897  -0.12773
C          C       0.84998   0.78783   0.66488  -0.12708
C          C       0.85243   0.21587   0.79305  -0.12772
C          C       0.15054   0.79149   0.85360  -0.12433
C          C       0.13171   0.19788   0.67028  -0.12861
C          C       0.87060   0.80240   0.65250  -0.12716
C          C       0.87273   0.20178   0.79477  -0.13032
C          C       0.12992   0.80586   0.86540  -0.12859
C          C       0.12643   0.16875   0.74733   0.05463
C          C       0.87163   0.82917   0.74561   0.05850
C          C       0.87798   0.17224   0.72691   0.05319
C          C       0.12864   0.83163   0.76271   0.06041
C          C       0.14225   0.15431   0.82001  -0.10960
C          C       0.85115   0.84132   0.85108  -0.10428
C          C       0.86219   0.15698   0.65823  -0.11372
C          C       0.14887   0.84302   0.64760  -0.10367
C          C       0.16272   0.16844   0.81514  -0.12140
C          C       0.83043   0.82726   0.86236  -0.12507
C          C       0.84175   0.17061   0.65826  -0.11692
C          C       0.16963   0.82918   0.63678  -0.12515
C          C       0.39613   0.33978   0.75010   0.06342
C          C       0.60222   0.65635   0.76097   0.07005
C          C       0.60840   0.34463   0.75424   0.06514
C          C       0.39510   0.64938   0.73711   0.06985
C          C       0.42515   0.37698   0.66941   0.20010
C          C       0.58070   0.61939   0.66687   0.19353
C          C       0.57908   0.38079   0.83334   0.20271
C          C       0.41845   0.61415   0.82524   0.19540
C          C       0.07322   0.08620   0.90519  -0.15077
C          C       0.91723   0.90446   0.92152  -0.14816
C          C       0.92964   0.08845   0.59514  -0.14333
C          C       0.08180   0.90525   0.58378  -0.15143
C          C       0.05436   0.06927   0.89529  -0.13184
C          C       0.93697   0.92129   0.90942  -0.12573
C          C       0.94799   0.07099   0.61046  -0.13523
C          C       0.06185   0.92156   0.59770  -0.12180
C          C       0.03879   0.08060   0.80953   0.06179
C          C       0.95790   0.91327   0.79254   0.06351
C          C       0.96328   0.08176   0.69925   0.06663
C          C       0.04125   0.91297   0.71835   0.06259
C          C       0.04219   0.11125   0.74925  -0.11668
C          C       0.95825   0.88636   0.69692  -0.12498
C          C       0.96027   0.11235   0.75694  -0.12236
C          C       0.04130   0.88595   0.81473  -0.12583
C          C       0.06062   0.12861   0.76325  -0.17283
C          C       0.93862   0.86927   0.70968  -0.17133
C          C       0.94235   0.13020   0.73773  -0.16846
C          C       0.06114   0.86928   0.79960  -0.17074
C          C       0.48256   0.43000   0.72383   0.02706
C          C       0.52133   0.56211   0.71741   0.02830
C          C       0.52094   0.43106   0.77000   0.02774
C          C       0.47982   0.56095   0.75837   0.02812
C          C       0.02036   0.02945   0.76760   0.03330
C          C       0.97925   0.96410   0.76505   0.03236
C          C       0.98040   0.03000   0.74760   0.03420
C          C       0.02034   0.96367   0.75044   0.03191
C          C       0.46115   0.47955   0.74629  -0.13159
C          C       0.54186   0.51265   0.71956  -0.13583
C          C       0.54178   0.48140   0.73042  -0.12894
C          C       0.46055   0.51078   0.75292  -0.13209
C          C       0.76839   0.76290   0.78724  -0.02211
C          C       0.22771   0.23723   0.73214  -0.01901
C          C       0.23079   0.76335   0.72701  -0.02190
C          C       0.77632   0.23916   0.74171  -0.01635
C          C       0.76520   0.73541   0.70954   0.13366
C          C       0.23412   0.26683   0.67026   0.13233
C          C       0.23272   0.73553   0.80845   0.13446
C          C       0.77037   0.26770   0.81699   0.13013
C          C       0.74351   0.72457   0.70632   0.13043
C          C       0.25528   0.28008   0.66747   0.13849
C          C       0.25379   0.72239   0.80839   0.12772
C          C       0.74877   0.28107   0.83844   0.13447
C          C       0.78995   0.77453   0.78184  -0.06412
C          C       0.20660   0.22444   0.73590  -0.06378
C          C       0.20982   0.77663   0.73063  -0.06577
C          C       0.79743   0.22584   0.73031  -0.06126
C          C       0.80835   0.78619   0.77745  -0.06837
C          C       0.18848   0.21238   0.73797  -0.06319
C          C       0.19185   0.78914   0.73201  -0.06544
C          C       0.81571   0.21407   0.72720  -0.06615
C          C       0.82945   0.80014   0.76972   0.12660
C          C       0.16777   0.19801   0.74046   0.12481
C          C       0.17081   0.80309   0.73928   0.12319
C          C       0.83653   0.20033   0.72609   0.12419
C          C       0.64269   0.71295   0.86236  -0.12441
C          C       0.34647   0.28565   0.80955  -0.12713
C          C       0.35382   0.70594   0.64784  -0.12126
C          C       0.65743   0.29022   0.70275  -0.13046
C          C       0.62282   0.69775   0.86043  -0.13311
C          C       0.36727   0.29790   0.81444  -0.13231
C          C       0.37376   0.69049   0.64378  -0.13005
C          C       0.63687   0.30276   0.69478  -0.12978
C          C       0.62339   0.67199   0.75611   0.05976
C          C       0.37435   0.32704   0.74291   0.05584
C          C       0.37363   0.66471   0.74966   0.06005
C          C       0.62987   0.33161   0.76612   0.05272
C          C       0.64459   0.66179   0.65155  -0.09924
C          C       0.35961   0.34392   0.67002  -0.11660
C          C       0.35277   0.65453   0.86150  -0.10465
C          C       0.64436   0.34800   0.84232  -0.11301
C          C       0.66457   0.67643   0.65494  -0.12333
C          C       0.33870   0.33210   0.66669  -0.11923
C          C       0.33266   0.66942   0.86401  -0.12236
C          C       0.66514   0.33603   0.84752  -0.12419
C          C       0.89371   0.84326   0.73161   0.07057
C          C       0.10535   0.15355   0.74296   0.06409
C          C       0.10651   0.84556   0.77869   0.07022
C          C       0.89891   0.15732   0.73624   0.06425
C          C       0.91741   0.87861   0.81861   0.19389
C          C       0.07723   0.11584   0.83383   0.20213
C          C       0.08209   0.87936   0.68810   0.19416
C          C       0.92594   0.11808   0.66351   0.19766
C          C       0.58203   0.59309   0.56554  -0.14789
C          C       0.43005   0.40614   0.59268  -0.14479
C          C       0.41851   0.58781   0.92656  -0.14829
C          C       0.57427   0.41036   0.90043  -0.14987
C          C       0.56301   0.57468   0.57847  -0.12563
C          C       0.44905   0.42259   0.60338  -0.13481
C          C       0.43820   0.57060   0.90703  -0.12432
C          C       0.55508   0.42602   0.88686  -0.13185
C          C       0.54180   0.58147   0.69527   0.06362
C          C       0.46392   0.41120   0.69465   0.06587
C          C       0.45871   0.57893   0.78468   0.06220
C          C       0.53996   0.41342   0.80189   0.06208
C          C       0.54030   0.60879   0.78921  -0.12427
C          C       0.45989   0.38087   0.75928  -0.12082
C          C       0.45885   0.60627   0.69042  -0.12381
C          C       0.54410   0.38286   0.74597  -0.11684
C          C       0.55912   0.62751   0.77476  -0.17197
C          C       0.44115   0.36405   0.74614  -0.17025
C          C       0.43931   0.62367   0.71047  -0.17263
C          C       0.56297   0.36676   0.76282  -0.17300
C          C       0.97894   0.93145   0.77274   0.02681
C          C       0.01988   0.06212   0.78113   0.02690
C          C       0.02023   0.93110   0.74144   0.02872
C          C       0.98157   0.06267   0.73222   0.02624
C          C       0.52171   0.52949   0.72497   0.03302
C          C       0.48147   0.46269   0.73515   0.03444
C          C       0.48025   0.52841   0.75042   0.03356
C          C       0.52159   0.46368   0.74968   0.03302
C          C       0.95967   0.98162   0.76304  -0.13089
C          C       0.04030   0.01183   0.75733  -0.13126
C          C       0.04025   0.98060   0.75112  -0.13326
C          C       0.96021   0.01289   0.75639  -0.13282
C          C       0.00083   0.07723   0.75662  -0.17737
C          C      -0.00050   0.91606   0.75732  -0.19056
C          C       0.00021   0.01335   0.75833   0.00152
C          C      -0.00009   0.98038   0.75837   0.00531
C          C       0.50036   0.57664   0.73783  -0.19090
C          C       0.50180   0.41558   0.74961  -0.17626
C          C       0.50114   0.51252   0.73871   0.00628
C          C       0.50139   0.47957   0.74118   0.00032
S          S       0.27447   0.81355   0.97227   0.43891
S          S       0.73339   0.19167   0.08285   0.43720
S          S       0.71828   0.81163   0.53417   0.43880
S          S       0.26269   0.18603   0.40610   0.44133
S          S       0.28156   0.81047   0.47429   0.43620
S          S       0.73644   0.18915   0.57525   0.43907
S          S       0.72020   0.81355   0.03525   0.43949
S          S       0.26529   0.18356   0.90436   0.43784
N          N       0.40092   0.36811   0.14030  -0.28909
N          N       0.60116   0.63185   0.15519  -0.30214
N          N       0.59616   0.36869   0.34856  -0.29466
N          N       0.39781   0.63381   0.32503  -0.30278
N          N       0.89525   0.86476   0.33980  -0.30306
N          N       0.09369   0.13274   0.33742  -0.29653
N          N       0.10209   0.86440   0.18449  -0.30445
N          N       0.90325   0.13150   0.14209  -0.29155
N          N       0.24790   0.80402   0.06031  -0.33806
N          N       0.75786   0.19805   0.12122  -0.34752
N          N       0.74547   0.80457   0.45869  -0.34287
N          N       0.23909   0.19337   0.35644  -0.34414
N          N       0.28772   0.78560   0.03883  -0.34937
N          N       0.71992   0.22347   0.14973  -0.33995
N          N       0.70718   0.78249   0.46164  -0.34700
N          N       0.27692   0.21780   0.34592  -0.34686
N          N       0.40479   0.36359   0.65828  -0.29688
N          N       0.60121   0.63491   0.65373  -0.30044
N          N       0.59930   0.36760   0.84832  -0.29450
N          N       0.39735   0.62853   0.84611  -0.30085
N          N       0.89615   0.86489   0.83362  -0.30385
N          N       0.09720   0.13055   0.84370  -0.29358
N          N       0.10352   0.86610   0.67052  -0.30211
N          N       0.90638   0.13307   0.64749  -0.29491
N          N       0.25419   0.80420   0.54915  -0.34452
N          N       0.76080   0.19593   0.61436  -0.34259
N          N       0.74718   0.80529   0.95917  -0.34011
N          N       0.24163   0.19191   0.85770  -0.34855
N          N       0.29190   0.78065   0.54900  -0.34479
N          N       0.72269   0.22078   0.64170  -0.34658
N          N       0.70832   0.78481   0.96533  -0.34807
N          N       0.27987   0.21514   0.84584  -0.34294
F          F       0.78372   0.72113   0.10817  -0.09269
F          F       0.21758   0.28188   0.07553  -0.09917
F          F       0.21603   0.71660   0.41733  -0.09203
F          F       0.78349   0.28486   0.38296  -0.10057
F          F       0.74356   0.69691   0.12407  -0.09801
F          F       0.25752   0.30768   0.06674  -0.09158
F          F       0.25754   0.69838   0.40025  -0.09866
F          F       0.74453   0.31241   0.40025  -0.09167
F          F       0.78349   0.71824   0.63293  -0.09441
F          F       0.21978   0.28435   0.60909  -0.10014
F          F       0.21395   0.71970   0.89224  -0.09266
F          F       0.78571   0.28338   0.87535  -0.09894
F          F       0.74254   0.69871   0.61770  -0.10005
F          F       0.25873   0.30912   0.60839  -0.09258
F          F       0.25322   0.69547   0.89247  -0.09869
F          F       0.74463   0.30769   0.92422  -0.09208

