data_crystal

_audit_creation_method 'AiiDA-DDEC plugin'

_cell_length_a        60.06726
_cell_length_b        45.21013
_cell_length_c         8.07985

_cell_angle_alpha     90.68340
_cell_angle_beta     91.92900
_cell_angle_gamma     90.05859

_symmetry_space_group_name_Hall 'P 1'
_symmetry_space_group_name_H-M  'P 1'

loop_
_symmetry_equiv_pos_as_xyz
 'x,y,z'

loop_
_atom_site_label
_atom_site_type_symbol
_atom_site_fract_x
_atom_site_fract_y
_atom_site_fract_z
_atom_site_charge
H          H       0.15154   0.23659   0.29233   0.12082
H          H       0.84934   0.76661   0.32068   0.12067
H          H       0.84960   0.23696   0.19660   0.12457
H          H       0.15066   0.76519   0.19932   0.12119
H          H       0.11611   0.20962   0.33268   0.10710
H          H       0.88493   0.79451   0.35425   0.10729
H          H       0.88481   0.20928   0.15656   0.10819
H          H       0.11499   0.79237   0.15758   0.10888
H          H       0.13948   0.13646   0.04134   0.11644
H          H       0.85854   0.86316   0.04040   0.11681
H          H       0.85931   0.13591   0.42681   0.11893
H          H       0.14034   0.86405   0.46429   0.11877
H          H       0.17566   0.16279   0.00695   0.12630
H          H       0.82225   0.83601   0.01314   0.12265
H          H       0.82341   0.16307   0.46060   0.12381
H          H       0.17669   0.83750   0.50060   0.12326
H          H       0.40649   0.33683   0.31269   0.06974
H          H       0.59408   0.66686   0.31417   0.06493
H          H       0.59502   0.33703   0.18633   0.06652
H          H       0.40422   0.66209   0.19727   0.06578
H          H       0.08907   0.08284   0.99318   0.11824
H          H       0.90860   0.91743   0.98620   0.12035
H          H       0.91005   0.08301   0.49315   0.11862
H          H       0.09035   0.91762   0.51115   0.11877
H          H       0.05556   0.05196   0.02975   0.10493
H          H       0.94262   0.94825   0.02029   0.10628
H          H       0.94405   0.05264   0.46653   0.10698
H          H       0.05654   0.94857   0.47190   0.10495
H          H       0.03013   0.11833   0.35997   0.10554
H          H       0.97115   0.88325   0.34947   0.10620
H          H       0.97056   0.11802   0.14331   0.10470
H          H       0.02942   0.88371   0.12672   0.10818
H          H       0.06225   0.14967   0.31218   0.10913
H          H       0.93855   0.85174   0.30285   0.10999
H          H       0.93815   0.14919   0.18402   0.11000
H          H       0.06178   0.85208   0.17697   0.10937
H          H       0.44377   0.47338   0.23987   0.10694
H          H       0.55664   0.52832   0.25488   0.10787
H          H       0.55701   0.47485   0.25558   0.10744
H          H       0.44342   0.52680   0.25805   0.10744
H          H       0.65390   0.73459   0.30712   0.12158
H          H       0.34665   0.26792   0.28340   0.12683
H          H       0.34604   0.73287   0.22253   0.12619
H          H       0.65489   0.26869   0.21185   0.12610
H          H       0.61757   0.70962   0.34451   0.10153
H          H       0.38357   0.29245   0.32213   0.10918
H          H       0.38217   0.70720   0.18566   0.10774
H          H       0.61813   0.29311   0.16880   0.10930
H          H       0.63657   0.63936   0.01493   0.11563
H          H       0.35848   0.36930   0.06962   0.11790
H          H       0.35893   0.63293   0.45890   0.11621
H          H       0.64026   0.36653   0.47465   0.11800
H          H       0.67335   0.66387   0.98023   0.11509
H          H       0.32093   0.34554   0.03914   0.11823
H          H       0.32209   0.65770   0.48789   0.11794
H          H       0.67768   0.34291   0.51198   0.11739
H          H       0.90585   0.83963   0.32419   0.06911
H          H       0.09489   0.16410   0.31873   0.06741
H          H       0.09398   0.83750   0.17567   0.06519
H          H       0.90584   0.16355   0.17129   0.06685
H          H       0.58860   0.58344   0.00370   0.11925
H          H       0.40928   0.41761   0.98731   0.11917
H          H       0.40992   0.58085   0.51216   0.11980
H          H       0.59118   0.41887   0.51116   0.11854
H          H       0.55495   0.55276   0.03921   0.10684
H          H       0.44367   0.44794   0.01702   0.10655
H          H       0.44410   0.55118   0.47888   0.10389
H          H       0.55727   0.44953   0.47264   0.10512
H          H       0.52982   0.61890   0.37189   0.10312
H          H       0.47151   0.38416   0.35634   0.10491
H          H       0.46970   0.61853   0.16418   0.10568
H          H       0.53003   0.38398   0.13200   0.10474
H          H       0.56196   0.65026   0.32403   0.10756
H          H       0.43838   0.35329   0.31739   0.10965
H          H       0.43712   0.64908   0.21274   0.10900
H          H       0.56248   0.35263   0.18225   0.10930
H          H       0.94343   0.97374   0.23873   0.10638
H          H       0.05672   0.02737   0.24735   0.10760
H          H       0.05670   0.97385   0.25219   0.10684
H          H       0.94349   0.02718   0.24959   0.10642
H          H       0.74421   0.69884   0.24453   0.15643
H          H       0.25321   0.30455   0.23624   0.15640
H          H       0.25431   0.69910   0.26208   0.15588
H          H       0.74675   0.30567   0.27730   0.15676
H          H       0.00012   0.10240   0.25287   0.10340
H          H       0.00010   0.89872   0.23952   0.10225
H          H       0.49965   0.60271   0.26718   0.10301
H          H       0.50075   0.39907   0.23965   0.10365
H          H       0.15205   0.23522   0.80291   0.12017
H          H       0.84890   0.76701   0.81656   0.12309
H          H       0.84750   0.23206   0.68408   0.11980
H          H       0.15165   0.76507   0.68577   0.12070
H          H       0.11680   0.20801   0.84553   0.10853
H          H       0.88527   0.79308   0.85062   0.10971
H          H       0.88234   0.20388   0.64005   0.10992
H          H       0.11610   0.79254   0.64505   0.10721
H          H       0.13872   0.13709   0.53157   0.11642
H          H       0.86043   0.86402   0.54682   0.11695
H          H       0.86001   0.13530   0.95929   0.11666
H          H       0.14056   0.86175   0.97257   0.11802
H          H       0.17476   0.16359   0.49433   0.12205
H          H       0.82345   0.83858   0.51738   0.12343
H          H       0.82430   0.16267  -0.00276   0.12105
H          H       0.17691   0.83510   0.00737   0.12302
H          H       0.40411   0.34261   0.83672   0.06709
H          H       0.59187   0.66961   0.74657   0.06239
H          H       0.59409   0.33534   0.67118   0.06616
H          H       0.40465   0.66041   0.69055   0.06667
H          H       0.08915   0.08247   0.49363   0.11951
H          H       0.90992   0.91648   0.49062   0.11943
H          H       0.91035   0.08059   0.00008   0.11984
H          H       0.09228   0.91746   0.00430   0.11858
H          H       0.05565   0.05168   0.53066   0.10543
H          H       0.94398   0.94730   0.52311   0.10630
H          H       0.94455   0.05093   0.96792   0.10425
H          H       0.05880   0.94897   0.96580   0.10613
H          H       0.02978   0.11879   0.85421   0.10516
H          H       0.97236   0.88306   0.85749   0.10804
H          H       0.97012   0.11769   0.64929   0.10538
H          H       0.02977   0.88271   0.63741   0.10530
H          H       0.06180   0.15026   0.80344   0.11049
H          H       0.93968   0.85145   0.81242   0.10963
H          H       0.93732   0.14814   0.69502   0.10995
H          H       0.06186   0.85061   0.68879   0.10988
H          H       0.44384   0.47339   0.74051   0.10607
H          H       0.55737   0.52586   0.74810   0.10820
H          H       0.55714   0.47240   0.75195   0.10715
H          H       0.44422   0.52676   0.75510   0.10733
H          H       0.65214   0.73635   0.75087   0.12627
H          H       0.34675   0.27012   0.83730   0.12334
H          H       0.34443   0.72842   0.70637   0.12303
H          H       0.65275   0.26476   0.69192   0.12532
H          H       0.61548   0.71150   0.77696   0.10677
H          H       0.38252   0.29744   0.87304   0.10681
H          H       0.38120   0.70456   0.67012   0.10698
H          H       0.61641   0.29022   0.65113   0.10669
H          H       0.64125   0.63247   0.55340   0.11722
H          H       0.35903   0.36293   0.52757   0.11476
H          H       0.36172   0.63247   0.97646   0.11532
H          H       0.63963   0.36228   0.96364   0.11608
H          H       0.67832   0.65698   0.53011   0.11862
H          H       0.32258   0.33647   0.49770   0.11584
H          H       0.32432   0.65563   0.00693   0.11686
H          H       0.67660   0.33751  -0.00110   0.11760
H          H       0.90728   0.83768   0.82497   0.06702
H          H       0.09550   0.16230   0.82587   0.06650
H          H       0.09550   0.83874   0.66601   0.06751
H          H       0.90329   0.15811   0.66259   0.06897
H          H       0.59047   0.57941   0.49760   0.11911
H          H       0.40818   0.41850   0.49079   0.12046
H          H       0.41184   0.58063   0.01286   0.11812
H          H       0.59094   0.41593   0.00230   0.11976
H          H       0.55610   0.54997   0.52878   0.10309
H          H       0.44253   0.44850   0.52288   0.10607
H          H       0.44578   0.55067   0.97506   0.10437
H          H       0.55729   0.44704   0.96577   0.10641
H          H       0.53177   0.61662   0.86139   0.10504
H          H       0.47132   0.38215   0.84183   0.10799
H          H       0.47109   0.61800   0.65910   0.10440
H          H       0.52896   0.38177   0.62839   0.10769
H          H       0.56469   0.64664   0.82007   0.10980
H          H       0.43816   0.35126   0.79619   0.10896
H          H       0.43856   0.64867   0.70961   0.10983
H          H       0.56114   0.34980   0.67816   0.10937
H          H       0.94435   0.97269   0.74062   0.10620
H          H       0.05714   0.02780   0.74960   0.10828
H          H       0.05762   0.97435   0.75245   0.10653
H          H       0.94393   0.02611   0.74968   0.10717
H          H       0.74491   0.70225   0.76044   0.15580
H          H       0.25576   0.29997   0.75654   0.15532
H          H       0.25255   0.69602   0.73508   0.15562
H          H       0.74450   0.30040   0.76140   0.15482
H          H       0.00003   0.10206   0.75511   0.10334
H          H       0.00127   0.89843   0.74517   0.10202
H          H       0.50130   0.60142   0.75556   0.10388
H          H       0.49996   0.39775   0.73508   0.10188
C          C       0.27006   0.26804   0.12019   0.10677
C          C       0.72807   0.73547   0.12034   0.10688
C          C       0.73050   0.26862   0.38836   0.10613
C          C       0.27107   0.73502   0.39322   0.10634
C          C       0.26627   0.23936   0.04646   0.09215
C          C       0.73250   0.76368   0.04879   0.09309
C          C       0.73466   0.23967   0.45344   0.09265
C          C       0.26722   0.76323   0.47032   0.08773
C          C       0.24423   0.22632   0.03957   0.12241
C          C       0.75484   0.77575   0.05200   0.12126
C          C       0.75671   0.22681   0.45156   0.12314
C          C       0.24508   0.77589   0.46991   0.12174
C          C       0.29146   0.28071   0.13102  -0.07959
C          C       0.70633   0.72387   0.12318  -0.08308
C          C       0.70899   0.28092   0.38455  -0.08110
C          C       0.29248   0.72258   0.38618  -0.07978
C          C       0.31004   0.29179   0.14252  -0.07943
C          C       0.68755   0.71360   0.13029  -0.07175
C          C       0.69026   0.29151   0.37788  -0.07481
C          C       0.31071   0.71092   0.37348  -0.07630
C          C       0.33132   0.30507   0.15878   0.12888
C          C       0.66622   0.70067   0.14346   0.12667
C          C       0.66881   0.30429   0.36339   0.12596
C          C       0.33160   0.69697   0.35704   0.12630
C          C       0.14877   0.21483   0.23653  -0.12721
C          C       0.85151   0.78757   0.25860  -0.12665
C          C       0.85191   0.21502   0.24803  -0.13123
C          C       0.14829   0.78670   0.25766  -0.12705
C          C       0.12899   0.19966   0.25852  -0.12810
C          C       0.87135   0.80324   0.27671  -0.12850
C          C       0.87155   0.19947   0.22649  -0.12762
C          C       0.12839   0.80195   0.23502  -0.12904
C          C       0.12539   0.17133   0.18780   0.05589
C          C       0.87413   0.83051   0.19722   0.05711
C          C       0.87452   0.17096   0.29247   0.05466
C          C       0.12534   0.82994   0.30932   0.05422
C          C       0.14242   0.15829   0.09589  -0.10832
C          C       0.85622   0.84207   0.10100  -0.10784
C          C       0.85691   0.15800   0.37725  -0.10808
C          C       0.14293   0.84253   0.40649  -0.10784
C          C       0.16242   0.17291   0.07660  -0.12209
C          C       0.83617   0.82700   0.08567  -0.11925
C          C       0.83707   0.17304   0.39600  -0.11978
C          C       0.16302   0.82782   0.42664  -0.12013
C          C       0.39524   0.34653   0.21800   0.06126
C          C       0.60389   0.65742   0.21386   0.06727
C          C       0.60543   0.34611   0.28943   0.06549
C          C       0.39419   0.65354   0.29753   0.06710
C          C       0.42088   0.38383   0.15319   0.19554
C          C       0.57825   0.61858   0.16371   0.19678
C          C       0.57981   0.38405   0.34650   0.19759
C          C       0.42043   0.61649   0.36023   0.19863
C          C       0.07613   0.09006   0.07549  -0.14720
C          C       0.92238   0.91043   0.06722  -0.14981
C          C       0.92336   0.09017   0.41474  -0.14771
C          C       0.07695   0.91068   0.42537  -0.14802
C          C       0.05741   0.07266   0.09868  -0.13108
C          C       0.94136   0.92786   0.08926  -0.12777
C          C       0.94232   0.07296   0.39677  -0.13129
C          C       0.05814   0.92817   0.40071  -0.12900
C          C       0.04038   0.08202   0.20300   0.06234
C          C       0.95935   0.91895   0.19347   0.05941
C          C       0.95972   0.08206   0.29618   0.06294
C          C       0.04063   0.91922   0.29101   0.06174
C          C       0.04268   0.11048   0.27603  -0.12427
C          C       0.95776   0.89082   0.26650  -0.12127
C          C       0.95763   0.11026   0.22340  -0.12068
C          C       0.04247   0.89115   0.21404  -0.12533
C          C       0.06115   0.12815   0.25097  -0.16509
C          C       0.93904   0.87308   0.24229  -0.17021
C          C       0.93896   0.12781   0.24412  -0.16854
C          C       0.06103   0.87337   0.24059  -0.16786
C          C       0.48013   0.43744   0.22355   0.02735
C          C       0.52013   0.56447   0.24248   0.02625
C          C       0.52101   0.43782   0.26474   0.02670
C          C       0.47950   0.56392   0.28173   0.02494
C          C       0.02075   0.03237   0.24154   0.03336
C          C       0.97935   0.96872   0.23575   0.03175
C          C       0.97944   0.03234   0.25705   0.03473
C          C       0.02077   0.96884   0.25377   0.03458
C          C       0.45948   0.48527   0.24401  -0.13747
C          C       0.54091   0.51650   0.25350  -0.13516
C          C       0.54114   0.48628   0.25646  -0.13244
C          C       0.45931   0.51545   0.25649  -0.13220
C          C       0.77333   0.76004   0.12645  -0.03965
C          C       0.22548   0.24143   0.10706  -0.03831
C          C       0.22628   0.76079   0.39309  -0.03682
C          C       0.77513   0.24240   0.38410  -0.03959
C          C       0.76798   0.73233   0.18897   0.24617
C          C       0.23019   0.26967   0.17162   0.24680
C          C       0.23113   0.73311   0.32429   0.24692
C          C       0.77013   0.27088   0.32884   0.24862
C          C       0.74643   0.72026   0.18772  -0.25700
C          C       0.25141   0.28273   0.17947  -0.25815
C          C       0.25243   0.72046   0.32318  -0.25563
C          C       0.74886   0.28373   0.32894  -0.25870
C          C       0.79475   0.77220   0.13712  -0.05938
C          C       0.20439   0.22841   0.11322  -0.05788
C          C       0.20501   0.77336   0.38378  -0.05824
C          C       0.79617   0.22950   0.37096  -0.05814
C          C       0.81295   0.78436   0.14871  -0.07258
C          C       0.18636   0.21622   0.12686  -0.07297
C          C       0.18671   0.78510   0.37051  -0.07459
C          C       0.81405   0.21710   0.35353  -0.07370
C          C       0.83350   0.79934   0.16364   0.12598
C          C       0.16593   0.20155   0.14615   0.12638
C          C       0.16606   0.79960   0.35229   0.12682
C          C       0.83427   0.20197   0.33279   0.12651
C          C       0.65002   0.71384   0.24307  -0.12862
C          C       0.34934   0.29002   0.23628  -0.12923
C          C       0.34894   0.71107   0.27441  -0.12909
C          C       0.65158   0.28998   0.27007  -0.12897
C          C       0.62972   0.69974   0.26358  -0.12898
C          C       0.36996   0.30381   0.25704  -0.12726
C          C       0.36914   0.69666   0.25472  -0.12792
C          C       0.63103   0.30371   0.24677  -0.12910
C          C       0.62477   0.67256   0.18339   0.05131
C          C       0.37349   0.33242   0.19604   0.05697
C          C       0.37297   0.66841   0.32152   0.05420
C          C       0.62678   0.33147   0.31984   0.05302
C          C       0.64067   0.66004   0.07909  -0.10541
C          C       0.35556   0.34722   0.11641  -0.10505
C          C       0.35577   0.65464   0.40667  -0.10584
C          C       0.64379   0.34523   0.41753  -0.10799
C          C       0.66107   0.67367   0.06003  -0.12698
C          C       0.33478   0.33402   0.09972  -0.12826
C          C       0.33535   0.66841   0.42245  -0.12635
C          C       0.66451   0.33212   0.43787  -0.12707
C          C       0.89511   0.84647   0.21874   0.06273
C          C       0.10460   0.15576   0.21519   0.06219
C          C       0.10442   0.84558   0.28117   0.06643
C          C       0.89538   0.15523   0.26960   0.06428
C          C       0.92054   0.88304   0.14655   0.19743
C          C       0.07869   0.11788   0.15390   0.19718
C          C       0.07904   0.88324   0.34329   0.19831
C          C       0.92098   0.11761   0.33584   0.19877
C          C       0.57568   0.59069   0.08610  -0.14315
C          C       0.42301   0.41072   0.06918  -0.14772
C          C       0.42308   0.58866   0.43440  -0.15176
C          C       0.57772   0.41168   0.42671  -0.14645
C          C       0.55693   0.57336   0.10885  -0.13271
C          C       0.44216   0.42788   0.08861  -0.12878
C          C       0.44216   0.57183   0.41246  -0.12581
C          C       0.55882   0.42902   0.40244  -0.12994
C          C       0.53998   0.58273   0.21363   0.06265
C          C       0.45997   0.41917   0.19471   0.06323
C          C       0.45937   0.58169   0.31227   0.06168
C          C       0.54120   0.41982   0.29438   0.06044
C          C       0.54234   0.61112   0.28744  -0.12277
C          C       0.45817   0.39144   0.27204  -0.12159
C          C       0.45697   0.61021   0.24415  -0.12251
C          C       0.54308   0.39161   0.21891  -0.12106
C          C       0.56082   0.62878   0.26224  -0.17023
C          C       0.43922   0.37403   0.25110  -0.16808
C          C       0.43821   0.62740   0.26917  -0.16738
C          C       0.56172   0.37395   0.24548  -0.16717
C          C       0.97956   0.93719   0.22261   0.02728
C          C       0.02044   0.06389   0.23201   0.02644
C          C       0.02049   0.93733   0.26197   0.02565
C          C       0.97977   0.06389   0.26965   0.02564
C          C       0.52066   0.53294   0.25003   0.03373
C          C       0.47971   0.46891   0.23836   0.03489
C          C       0.47935   0.53241   0.26561   0.03300
C          C       0.52111   0.46936   0.25802   0.03315
C          C       0.95925   0.98537   0.24087  -0.13254
C          C       0.04091   0.01572   0.24629  -0.13351
C          C       0.04092   0.98550   0.25133  -0.13387
C          C       0.95930   0.01560   0.24987  -0.13531
C          C       0.00012   0.07837   0.25196  -0.17948
C          C       0.00004   0.92275   0.24094  -0.17994
C          C       0.00008   0.01650   0.24842   0.00494
C          C       0.00006   0.98465   0.24606   0.00598
C          C       0.49975   0.57868   0.26429  -0.17965
C          C       0.50064   0.42310   0.24202  -0.18274
C          C       0.50010   0.51683   0.25556   0.00429
C          C       0.50031   0.48500   0.25061   0.00598
C          C       0.27112   0.26427   0.62216   0.10671
C          C       0.72835   0.73684   0.62174   0.10455
C          C       0.72901   0.26434   0.88729   0.10322
C          C       0.27049   0.73012   0.87401   0.10692
C          C       0.26633   0.23657   0.54007   0.09036
C          C       0.73225   0.76470   0.54426   0.09258
C          C       0.73374   0.23635   0.96239   0.09255
C          C       0.26755   0.75821   0.95503   0.09204
C          C       0.24395   0.22453   0.53410   0.12265
C          C       0.75435   0.77764   0.54672   0.12076
C          C       0.75602   0.22410   0.96363   0.12097
C          C       0.24588   0.77216   0.95777   0.12468
C          C       0.29282   0.27606   0.63387  -0.07993
C          C       0.70704   0.72395   0.62285  -0.07558
C          C       0.70727   0.27599   0.87854  -0.07887
C          C       0.29167   0.71684   0.87020  -0.08283
C          C       0.31134   0.28719   0.64940  -0.07515
C          C       0.68876   0.71211   0.62876  -0.08000
C          C       0.68847   0.28622   0.86462  -0.07623
C          C       0.31035   0.70611   0.86748  -0.07367
C          C       0.33224   0.30156   0.66576   0.12637
C          C       0.66773   0.69833   0.63943   0.12885
C          C       0.66721   0.29951   0.84709   0.12751
C          C       0.33182   0.69350   0.85724   0.12765
C          C       0.14901   0.21390   0.74273  -0.12710
C          C       0.85154   0.78810   0.75704  -0.12877
C          C       0.85036   0.21105   0.74516  -0.12718
C          C       0.14910   0.78608   0.74906  -0.12808
C          C       0.12931   0.19863   0.76580  -0.13033
C          C       0.87181   0.80276   0.77567  -0.13032
C          C       0.86984   0.19526   0.72133  -0.13046
C          C       0.12927   0.80152   0.72680  -0.12917
C          C       0.12538   0.17087   0.68922   0.05463
C          C       0.87519   0.83020   0.69960   0.05757
C          C       0.87356   0.16794   0.79948   0.05424
C          C       0.12608   0.82897   0.80664   0.05651
C          C       0.14195   0.15852   0.59013  -0.10988
C          C       0.85755   0.84288   0.60541  -0.10705
C          C       0.85695   0.15643   0.89984  -0.10942
C          C       0.14337   0.84071   0.91001  -0.10921
C          C       0.16188   0.17322   0.56951  -0.11893
C          C       0.83714   0.82876   0.58898  -0.12156
C          C       0.83720   0.17159   0.92075  -0.12176
C          C       0.16343   0.82590   0.92954  -0.12173
C          C       0.39413   0.34799   0.72452   0.06959
C          C       0.60443   0.65612   0.68467   0.06109
C          C       0.60448   0.34337   0.77703   0.06724
C          C       0.39525   0.65241   0.79557   0.06766
C          C       0.42015   0.38338   0.64657   0.20103
C          C       0.58034   0.61508   0.65558   0.19640
C          C       0.57909   0.38122   0.83874   0.19792
C          C       0.42209   0.61610   0.85894   0.19911
C          C       0.07619   0.08979   0.57551  -0.15017
C          C       0.92370   0.90960   0.57200  -0.14845
C          C       0.92341   0.08817   0.92066  -0.15245
C          C       0.07852   0.91041   0.92213  -0.14823
C          C       0.05749   0.07243   0.59908  -0.12929
C          C       0.94267   0.92705   0.59324  -0.12816
C          C       0.94251   0.07138   0.89974  -0.12770
C          C       0.05983   0.92816   0.89788  -0.12960
C          C       0.04041   0.08197   0.70254   0.05977
C          C       0.96059   0.91833   0.69839   0.06223
C          C       0.95974   0.08104   0.79909   0.06017
C          C       0.04181   0.91899   0.79338   0.06191
C          C       0.04251   0.11066   0.77263  -0.12012
C          C       0.95900   0.89038   0.77359  -0.12454
C          C       0.95731   0.10937   0.72873  -0.12049
C          C       0.04316   0.89045   0.72095  -0.12160
C          C       0.06094   0.12835   0.74661  -0.17094
C          C       0.94029   0.87261   0.75012  -0.16964
C          C       0.93846   0.12650   0.75196  -0.16995
C          C       0.06159   0.87240   0.74727  -0.16923
C          C       0.47973   0.43650   0.72083   0.02478
C          C       0.52127   0.56266   0.73156   0.02449
C          C       0.52070   0.43605   0.75976   0.02363
C          C       0.48074   0.56308   0.77457   0.02725
C          C       0.02116   0.03227   0.74328   0.03472
C          C       0.98028   0.96820   0.73817   0.03602
C          C       0.97985   0.03173   0.75790   0.03286
C          C       0.02172   0.96868   0.75620   0.03290
C          C       0.45973   0.48485   0.74277  -0.13472
C          C       0.54151   0.51434   0.74639  -0.13365
C          C       0.54138   0.48412   0.75099  -0.13669
C          C       0.45995   0.51504   0.75330  -0.13355
C          C       0.77300   0.76330   0.62782  -0.03736
C          C       0.22588   0.23973   0.61044  -0.03881
C          C       0.22665   0.75857   0.87848  -0.03901
C          C       0.77411   0.23930   0.88870  -0.03851
C          C       0.76801   0.73629   0.70056   0.24663
C          C       0.23162   0.26692   0.68424   0.24629
C          C       0.23064   0.73120   0.80303   0.24610
C          C       0.76844   0.26681   0.82206   0.24627
C          C       0.74683   0.72318   0.69769  -0.25682
C          C       0.25316   0.27900   0.69145  -0.25735
C          C       0.25145   0.71713   0.79999  -0.25921
C          C       0.74700   0.27916   0.82066  -0.25419
C          C       0.79431   0.77582   0.63723  -0.05940
C          C       0.20451   0.22758   0.61637  -0.05951
C          C       0.20564   0.77193   0.87328  -0.06109
C          C       0.79530   0.22669   0.87796  -0.05982
C          C       0.81282   0.78710   0.64905  -0.07205
C          C       0.18628   0.21581   0.62776  -0.07170
C          C       0.18736   0.78379   0.86386  -0.07151
C          C       0.81330   0.21441   0.86359  -0.07186
C          C       0.83377   0.80104   0.66447   0.12624
C          C       0.16577   0.20127   0.64568   0.12519
C          C       0.16667   0.79831   0.84860   0.12711
C          C       0.83359   0.19931   0.84396   0.12748
C          C       0.64966   0.71372   0.70698  -0.12923
C          C       0.34952   0.29035   0.76953  -0.12918
C          C       0.34836   0.70756   0.76609  -0.12893
C          C       0.64981   0.28601   0.75163  -0.13063
C          C       0.62920   0.69973   0.72099  -0.12816
C          C       0.36953   0.30572   0.78875  -0.12927
C          C       0.36894   0.69411   0.74672  -0.12736
C          C       0.62947   0.30037   0.72952  -0.13014
C          C       0.62597   0.67029   0.66626   0.05342
C          C       0.37314   0.33198   0.70153   0.05509
C          C       0.37391   0.66685   0.82195   0.05186
C          C       0.62560   0.32802   0.80542   0.05556
C          C       0.64397   0.65509   0.59682  -0.10161
C          C       0.35602   0.34277   0.59539  -0.10898
C          C       0.35763   0.65335   0.91746  -0.10720
C          C       0.64281   0.34106   0.90421  -0.10723
C          C       0.66449   0.66873   0.58418  -0.12627
C          C       0.33582   0.32807   0.57905  -0.12710
C          C       0.33688   0.66622   0.93396  -0.12735
C          C       0.66331   0.32729   0.92350  -0.12665
C          C       0.89647   0.84539   0.72186   0.06463
C          C       0.10475   0.15503   0.71753   0.06581
C          C       0.10543   0.84524   0.77743   0.06562
C          C       0.89416   0.15182   0.77258   0.06630
C          C       0.92188   0.88235   0.65273   0.19846
C          C       0.07861   0.11777   0.65211   0.20018
C          C       0.08004   0.88249   0.84462   0.19873
C          C       0.92070   0.11578   0.84394   0.19841
C          C       0.57745   0.58726   0.57744  -0.14536
C          C       0.42202   0.41098   0.56966  -0.15314
C          C       0.42486   0.58830   0.93338  -0.14909
C          C       0.57735   0.40893   0.91841  -0.14791
C          C       0.55828   0.57061   0.59762  -0.12848
C          C       0.44121   0.42802   0.59091  -0.12639
C          C       0.44381   0.57138   0.90934  -0.12822
C          C       0.55858   0.42656   0.89503  -0.12724
C          C       0.54132   0.58044   0.70127   0.06125
C          C       0.45934   0.41860   0.69220   0.05868
C          C       0.46085   0.58115   0.80736   0.05973
C          C       0.54074   0.41764   0.78822   0.06070
C          C       0.54411   0.60868   0.77604  -0.12064
C          C       0.45771   0.39026   0.76249  -0.12229
C          C       0.45843   0.60970   0.73977  -0.12109
C          C       0.54225   0.38931   0.71352  -0.12525
C          C       0.56297   0.62572   0.75307  -0.16929
C          C       0.43876   0.37288   0.73898  -0.17305
C          C       0.43972   0.62697   0.76606  -0.17087
C          C       0.56074   0.37134   0.73944  -0.16995
C          C       0.98070   0.93670   0.72650   0.02540
C          C       0.02058   0.06377   0.73286   0.02659
C          C       0.02164   0.93715   0.76531   0.02573
C          C       0.97995   0.06327   0.77120   0.02608
C          C       0.52144   0.53115   0.74147   0.03492
C          C       0.47972   0.46799   0.73575   0.03395
C          C       0.48020   0.53156   0.75990   0.03314
C          C       0.52116   0.46759   0.75278   0.03731
C          C       0.96005   0.98456   0.74222  -0.13650
C          C       0.04144   0.01589   0.74839  -0.13630
C          C       0.04171   0.98567   0.75311  -0.13357
C          C       0.95983   0.01476   0.75022  -0.13228
C          C       0.00018   0.07802   0.75340  -0.18154
C          C       0.00122   0.92245   0.74552  -0.18191
C          C       0.00063   0.01614   0.75011   0.00441
C          C       0.00089   0.98430   0.74829   0.00445
C          C       0.50111   0.57739   0.75411  -0.17976
C          C       0.50012   0.42178   0.73797  -0.18247
C          C       0.50071   0.51548   0.74904   0.00582
C          C       0.50054   0.48364   0.74578   0.00273
S          S       0.27169   0.80375   0.10470   0.43565
S          S       0.73265   0.19000   0.09949   0.43453
S          S       0.72984   0.81035   0.39984   0.43474
S          S       0.26727   0.19055   0.39322   0.43594
S          S       0.26974   0.80975   0.61189   0.43450
S          S       0.73282   0.19225   0.57828   0.43369
S          S       0.73092   0.81024   0.91354   0.43387
S          S       0.26886   0.19248   0.91038   0.43454
N          N       0.40035   0.36928   0.13102  -0.30205
N          N       0.59790   0.63388   0.13104  -0.29730
N          N       0.59985   0.36894   0.37704  -0.30019
N          N       0.40026   0.63116   0.38679  -0.30038
N          N       0.90035   0.86777   0.12138  -0.29906
N          N       0.09849   0.13313   0.12473  -0.29785
N          N       0.09901   0.86789   0.37353  -0.30129
N          N       0.90089   0.13266   0.35940  -0.30171
N          N       0.24596   0.79835   0.03943  -0.34515
N          N       0.75763   0.19766   0.03853  -0.34095
N          N       0.75522   0.80377   0.46847  -0.34162
N          N       0.24226   0.19829   0.45351  -0.34071
N          N       0.28375   0.77402   0.03516  -0.34028
N          N       0.71882   0.21902   0.03648  -0.34139
N          N       0.71674   0.78120   0.46359  -0.34161
N          N       0.28124   0.21926   0.46364  -0.34224
N          N       0.40001   0.36800   0.62123  -0.29898
N          N       0.60066   0.62937   0.63166  -0.29477
N          N       0.59898   0.36569   0.86883  -0.30074
N          N       0.40200   0.63075   0.88780  -0.29868
N          N       0.90172   0.86708   0.62728  -0.30226
N          N       0.09831   0.13316   0.62246  -0.29783
N          N       0.09977   0.86668   0.87505  -0.29820
N          N       0.90077   0.13092   0.87092  -0.29650
N          N       0.24428   0.80251   0.54652  -0.33977
N          N       0.75791   0.19969   0.51892  -0.34454
N          N       0.75620   0.80234   0.97907  -0.34233
N          N       0.24346   0.19945   0.96526  -0.34467
N          N       0.28282   0.78035   0.54823  -0.34502
N          N       0.71944   0.22211   0.52261  -0.34121
N          N       0.71726   0.78126   0.97293  -0.34573
N          N       0.28187   0.22225   0.97659  -0.34051
F          F       0.78460   0.71579   0.25846  -0.12966
F          F       0.21320   0.28568   0.23369  -0.13014
F          F       0.21428   0.71728   0.24996  -0.12890
F          F       0.78681   0.28721   0.26648  -0.13030
F          F       0.78461   0.72170   0.78332  -0.12745
F          F       0.21541   0.28273   0.75824  -0.13023
F          F       0.21318   0.71721   0.72491  -0.12887
F          F       0.78459   0.28273   0.74981  -0.12958

