data_crystal

_audit_creation_method 'AiiDA-DDEC plugin'

_cell_length_a        32.05062
_cell_length_b        32.10302
_cell_length_c        13.88424

_cell_angle_alpha     90.04194
_cell_angle_beta     89.95598
_cell_angle_gamma     120.15525

_symmetry_space_group_name_Hall 'P 1'
_symmetry_space_group_name_H-M  'P 1'

loop_
_symmetry_equiv_pos_as_xyz
 'x,y,z'

loop_
_atom_site_label
_atom_site_type_symbol
_atom_site_fract_x
_atom_site_fract_y
_atom_site_fract_z
_atom_site_charge
H          H       0.03484   0.87018   0.26280   0.11044
H          H       0.12988   0.16662   0.25599   0.10983
H          H       0.83195   0.96589   0.25072   0.11068
H          H       0.18730   0.70578   0.38989   0.10897
H          H       0.29348   0.48213   0.38732   0.10773
H          H       0.50950   0.79509   0.35961   0.11176
H          H       0.04985   0.95655   0.23568   0.12593
H          H       0.04498   0.09562   0.23136   0.12295
H          H       0.90609   0.95140   0.23442   0.12362
H          H       0.15717   0.75695   0.31584   0.11606
H          H       0.24214   0.40166   0.30988   0.11374
H          H       0.59133   0.82664   0.28675   0.11575
H          H       0.26161   0.84133   0.83702   0.10160
H          H       0.14762   0.41672   0.81471   0.09760
H          H       0.57195   0.74232   0.85833   0.10393
H          H       0.30070   0.80163   0.75115   0.11174
H          H       0.19101   0.49709   0.73621   0.11063
H          H       0.49426   0.70249   0.76894   0.11137
H          H       0.27925   0.70991   0.74177   0.11650
H          H       0.28746   0.56884   0.73868   0.11895
H          H       0.43053   0.72000   0.73851   0.11477
H          H       0.19756   0.85682   0.85605   0.06584
H          H       0.13323   0.33672   0.83691   0.06858
H          H       0.65358   0.80339   0.87403   0.06512
H          H       0.66396   0.77506   0.17588   0.05806
H          H       0.21922   0.88131   0.17069   0.05897
H          H       0.11804   0.33931   0.16353   0.05846
H          H       0.70795   0.91649   0.35069   0.06789
H          H       0.08825   0.80352   0.38595   0.06546
H          H       0.19995   0.28863   0.37163   0.06730
H          H       0.75915   0.00285   0.39550   0.11984
H          H       0.99178   0.78668   0.30473   0.11613
H          H       0.20462   0.19879   0.31131   0.11526
H          H       0.76062   0.99541   0.26875   0.11915
H          H       0.00070   0.74654   0.37795   0.11800
H          H       0.24561   0.24451   0.38978   0.11826
H          H       0.81026   0.00541   0.34173   0.11585
H          H       0.02499   0.76032   0.25920   0.12080
H          H       0.24119   0.25825   0.26729   0.12150
H          H       0.79885   0.93633   0.46207   0.11840
H          H       0.03422   0.85749   0.43443   0.11651
H          H       0.13567   0.18466   0.44264   0.11735
H          H       0.74230   0.88220   0.46682   0.11785
H          H       0.09018   0.86909   0.48312   0.11763
H          H       0.12903   0.23468   0.47292   0.11896
H          H       0.74778   0.93663   0.51140   0.12237
H          H       0.03668   0.81383   0.50879   0.12191
H          H       0.18101   0.23296   0.51120   0.12174
H          H       0.68287   0.70966   0.15779   0.11524
H          H       0.28746   0.96561   0.14838   0.11648
H          H       0.03599   0.32274   0.12390   0.11593
H          H       0.71508   0.74662   0.25778   0.11082
H          H       0.25435   0.96096   0.25476   0.10965
H          H       0.03321   0.28853   0.22717   0.11217
H          H       0.74548   0.75236   0.14773   0.12526
H          H       0.24599   0.98707   0.14966   0.12612
H          H       0.01513   0.26014   0.11314   0.12543
H          H       0.72538   0.78819   0.99642   0.12088
H          H       0.20686   0.93249   0.99555   0.12011
H          H       0.08060   0.27866   0.97957   0.11671
H          H       0.68614   0.81130   0.01091   0.11473
H          H       0.18340   0.86987   0.00631   0.11610
H          H       0.14131   0.32176   0.00480   0.12466
H          H       0.66269   0.74773   0.01142   0.11264
H          H       0.24711   0.91009   0.00647   0.11222
H          H       0.09758   0.34021   0.99221   0.10978
H          H       0.12097   0.95150   0.84658   0.10510
H          H       0.04466   0.16404   0.83879   0.10726
H          H       0.83197   0.87345   0.84801   0.10806
H          H       0.15682   0.94396   0.07564   0.10820
H          H       0.05602   0.21352   0.06750   0.10873
H          H       0.78984   0.83985   0.08004   0.10943
H          H       0.04083   0.83501   0.04252   0.10874
H          H       0.16353   0.20941   0.03265   0.10960
H          H       0.79366   0.95561   0.03367   0.10753
H          H       0.16855   0.71318   0.59630   0.10341
H          H       0.28396   0.45576   0.59250   0.10347
H          H       0.55101   0.82221   0.57154   0.10668
H          H       0.04077   0.94649   0.87907   0.12337
H          H       0.05205   0.09198   0.87494   0.12567
H          H       0.90730   0.95584   0.87720   0.12641
H          H       0.12915   0.75196   0.68504   0.11650
H          H       0.24133   0.37570   0.67465   0.11563
H          H       0.62822   0.86231   0.66309   0.11692
H          H       0.27855   0.88345   0.43508   0.10607
H          H       0.11521   0.39633   0.42578   0.10573
H          H       0.61219   0.72704   0.45792   0.10762
H          H       0.30697   0.83230   0.51308   0.11742
H          H       0.16618   0.47599   0.50404   0.11628
H          H       0.53190   0.69724   0.53362   0.11697
H          H       0.28925   0.71581   0.38408   0.12189
H          H       0.28441   0.57636   0.38101   0.12249
H          H       0.42404   0.70609   0.38174   0.12102
H          H       0.22087   0.89266   0.34354   0.06826
H          H       0.10649   0.32852   0.33448   0.07219
H          H       0.67612   0.78123   0.35208   0.07118
H          H       0.72083   0.83042   0.69561   0.06328
H          H       0.16136   0.88085   0.69713   0.06371
H          H       0.11064   0.27293   0.68146   0.06284
H          H       0.68278   0.92532   0.89102   0.06187
H          H       0.06920   0.75136   0.90838   0.05999
H          H       0.23186   0.33175   0.93066   0.06137
H          H       0.65539   0.86381   0.02157   0.11251
H          H       0.13165   0.78860   0.03470   0.11808
H          H       0.20892   0.30165   0.10059   0.12267
H          H       0.65004   0.91370   0.05976   0.11818
H          H       0.08155   0.73563   0.08148   0.11663
H          H       0.27130   0.32457   0.07646   0.11747
H          H       0.69871   0.90670   0.10152   0.12283
H          H       0.09064   0.79332   0.11331   0.11987
H          H       0.23123   0.26173   0.08263   0.11607
H          H       0.75522   0.00806   0.91518   0.12204
H          H       0.98634   0.74086   0.93066   0.12221
H          H       0.25833   0.29210   0.81342   0.12222
H          H       0.75545   0.99557   0.03954   0.11896
H          H      -0.00063   0.75686   0.05389   0.11976
H          H       0.25612   0.25151   0.90307   0.12006
H          H       0.70579   0.99770   0.98997   0.11249
H          H       0.99758   0.70426   0.01048   0.11253
H          H       0.29939   0.31391   0.91194   0.11097
H          H       0.78547   0.83504   0.59137   0.11754
H          H       0.15449   0.93877   0.59106   0.11918
H          H       0.09661   0.19218   0.62957   0.12529
H          H       0.82838   0.86182   0.68503   0.11626
H          H       0.12947   0.95631   0.68556   0.11689
H          H       0.05240   0.20427   0.58141   0.11848
H          H       0.80181   0.89362   0.63373   0.12464
H          H       0.09675   0.89699   0.63878   0.12487
H          H       0.03781   0.16427   0.67971   0.11738
H          H       0.77610   0.78801   0.79787   0.11868
H          H       0.20573   0.98058   0.79187   0.12007
H          H       0.01213   0.21709   0.78187   0.12044
H          H       0.73628   0.76143   0.69910   0.11684
H          H       0.23023   0.96557   0.69205   0.11871
H          H       0.02496   0.25410   0.67863   0.11856
H          H       0.71380   0.76772   0.81219   0.11278
H          H       0.22678   0.93944   0.80694   0.10965
H          H       0.05236   0.27993   0.79107   0.10892
H          H       0.38800   0.51242   0.89597   0.11286
H          H       0.49031   0.87616   0.89168   0.11283
H          H       0.12715   0.61661   0.89998   0.11245
H          H       0.53032   0.37835   0.20376   0.11432
H          H       0.62486   0.15597   0.19623   0.11362
H          H       0.84590   0.47231   0.21011   0.11506
H          H       0.38038   0.62232   0.05284   0.11992
H          H       0.38027   0.76032   0.05100   0.11926
H          H       0.24313   0.62311   0.05507   0.11955
H          H       0.49640   0.42464   0.12381   0.11514
H          H       0.57936   0.07516   0.11736   0.11503
H          H       0.92714   0.50934   0.13147   0.11561
H          H       0.60454   0.49443   0.69884   0.10878
H          H       0.50894   0.10957   0.69173   0.10910
H          H       0.88660   0.38912   0.69593   0.10859
H          H       0.63953   0.45656   0.59672   0.11086
H          H       0.54537   0.18271   0.59030   0.11074
H          H       0.81469   0.35527   0.59132   0.11074
H          H       0.62435   0.38451   0.54939   0.12498
H          H       0.61615   0.24035   0.54511   0.12518
H          H       0.75835   0.37240   0.54795   0.12480
H          H       0.53557   0.50790   0.73348   0.06763
H          H       0.49830   0.02812   0.72510   0.06626
H          H       0.96834   0.46095   0.73709   0.06872
H          H       0.05253   0.48857   0.23664   0.06167
H          H       0.51866   0.57325   0.22992   0.06017
H          H       0.43286   0.94865   0.22563   0.06020
H          H       0.00520   0.56981   0.00869   0.06333
H          H       0.44356   0.44453  -0.00071   0.05908
H          H       0.56029   0.00040   0.99270   0.05974
H          H       0.01328   0.54356   0.84230   0.11038
H          H       0.45100   0.47325   0.82633   0.11187
H          H       0.59203   0.99555   0.82919   0.12105
H          H       0.06160   0.60196   0.81729   0.11918
H          H       0.38833   0.45210   0.82486   0.11987
H          H       0.53257   0.98672   0.82303   0.11019
H          H       0.00319   0.59324   0.83818   0.12082
H          H       0.40878   0.41068   0.84066   0.11963
H          H       0.54180   0.93710   0.81273   0.11926
H          H       0.09489   0.66697   0.95794   0.12494
H          H       0.33971   0.42524   0.98576   0.12411
H          H       0.57554   0.91363   0.97206   0.12384
H          H       0.06616   0.65040   0.07205   0.12099
H          H       0.36854   0.42247   0.09269   0.12223
H          H       0.58416   0.94789   0.07824   0.12167
H          H       0.03546   0.65672   0.97132   0.12130
H          H       0.35671   0.38077  -0.00230   0.11620
H          H       0.62227   0.97478   0.97657   0.11750
H          H       0.16238   0.53567   0.25704   0.11776
H          H       0.47131   0.63541   0.25031   0.11656
H          H       0.37279   0.83883   0.24623   0.11640
H          H       0.11896   0.50421   0.34770   0.12262
H          H       0.50193   0.62247   0.34069   0.12317
H          H       0.38224   0.88147   0.33682   0.12354
H          H       0.12644   0.55921   0.30155   0.12223
H          H       0.44657   0.57558   0.29334   0.12294
H          H       0.43170   0.87658   0.29258   0.12368
H          H       0.05726   0.42753   0.13044   0.10775
H          H       0.57672   0.63778   0.11670   0.10800
H          H       0.33173   0.87765   0.14845   0.12501
H          H       0.07999   0.42850   0.24796   0.12025
H          H       0.57815   0.66161   0.23353   0.12212
H          H       0.36593   0.93826   0.10987   0.10902
H          H       0.12028   0.45642   0.15046   0.12491
H          H       0.54726   0.67110   0.13784   0.12306
H          H       0.34741   0.92483   0.23240   0.11979
H          H       0.49902   0.62126   0.85890   0.10582
H          H       0.38199   0.87929   0.85175   0.10612
H          H       0.12043   0.50135   0.87029   0.10663
H          H       0.46384   0.63199   0.08761   0.10606
H          H       0.37119   0.83447   0.08345   0.10655
H          H       0.16641   0.53828   0.09345   0.10759
H          H       0.38023   0.54995   0.66441   0.11046
H          H       0.45465   0.83076   0.66304   0.11160
H          H       0.16791   0.61606   0.66612   0.11063
H          H       0.52841   0.42227   0.38545   0.10851
H          H       0.58097   0.10819   0.37632   0.10763
H          H       0.89311   0.47000   0.38781   0.11097
H          H       0.38727   0.62389   0.69544   0.11279
H          H       0.37659   0.76336   0.69371   0.11177
H          H       0.23519   0.61118   0.69834   0.11174
H          H       0.49703   0.46486   0.48325   0.11901
H          H       0.53914   0.03365   0.47276   0.12005
H          H       0.96647   0.49982   0.48695   0.11722
H          H       0.61723   0.55694   0.22459   0.11004
H          H       0.44614   0.06034   0.22118   0.11022
H          H       0.93927   0.38705   0.21532   0.11141
H          H       0.64846   0.51065   0.31239   0.11922
H          H       0.49178   0.13873   0.30702   0.11700
H          H       0.86048   0.35227   0.30112   0.11946
H          H       0.62678   0.38933   0.19274   0.12965
H          H       0.61276   0.24149   0.18846   0.12971
H          H       0.76032   0.37526   0.19124   0.12958
H          H       0.55875   0.55941   0.11439   0.06747
H          H       0.44456   0.00086   0.10718   0.06790
H          H       0.00093   0.44842   0.11402   0.06509
H          H       0.00405   0.42155   0.74688   0.05792
H          H       0.57757   0.58647   0.72582   0.05965
H          H       0.41871   0.99234   0.71756   0.05912
H          H       0.06363   0.54645   0.50574   0.06365
H          H       0.44786   0.51392   0.50076   0.06427
H          H       0.49485   0.93578   0.49963   0.06312
H          H       0.02777   0.58073   0.61573   0.12217
H          H       0.41166   0.44349   0.60794   0.12245
H          H       0.56235   0.96767   0.61658   0.12210
H          H       0.05404   0.61932   0.51472   0.12055
H          H       0.37279   0.43291   0.50821   0.12010
H          H       0.57546   0.94103   0.51728   0.12067
H          H       0.08415   0.63454   0.62769   0.11900
H          H       0.35896   0.44772   0.62273   0.11883
H          H       0.55611   0.90974   0.62870   0.11862
H          H       0.12470   0.62052   0.42586   0.11972
H          H       0.37593   0.50519   0.42007   0.11929
H          H       0.50511   0.87371   0.41931   0.11901
H          H       0.15367   0.59034   0.47444   0.12472
H          H       0.40786   0.56365   0.47214   0.12469
H          H       0.44558   0.84505   0.46716   0.12267
H          H       0.15955   0.64227   0.53210   0.10924
H          H       0.35436   0.51815   0.52673   0.10828
H          H       0.49124   0.83853   0.52509   0.10848
H          H       0.07063   0.40284   0.75003   0.12518
H          H       0.58839   0.66999   0.72296   0.12512
H          H       0.33423   0.91911   0.71656   0.12592
H          H       0.02752   0.37245   0.84283   0.12145
H          H       0.62781   0.66429   0.80538   0.11999
H          H       0.34118   0.96617   0.79469   0.12067
H          H       0.08390   0.42328   0.87128   0.11779
H          H       0.57645   0.66554   0.84830   0.11437
H          H       0.33903   0.91417   0.84267   0.11469
H          H       0.98506   0.41029   0.92427   0.11838
H          H       0.59891   0.58760   0.90092   0.11997
H          H       0.41759   0.01276   0.89314   0.12002
H          H       0.99220   0.46612   0.88428   0.11554
H          H       0.54372   0.53437   0.87298   0.11477
H          H       0.47075   0.01097   0.86455   0.11383
H          H       0.03934   0.46541   0.94791   0.11929
H          H       0.54258   0.58198   0.93407   0.11981
H          H       0.42312   0.96209   0.92572   0.11880
C          C       0.09188   0.85455   0.28521   0.01471
C          C       0.14603   0.23957   0.27716   0.01461
C          C       0.75985   0.90730   0.27606   0.01687
C          C       0.07072   0.87825   0.24038  -0.20062
C          C       0.12219   0.19447   0.23285  -0.20014
C          C       0.80514   0.92902   0.23213  -0.20354
C          C       0.20700   0.74469   0.39960  -0.14331
C          C       0.25439   0.46355   0.39447  -0.14184
C          C       0.53198   0.78005   0.38038  -0.14344
C          C       0.02512   0.97583   0.11026   0.04611
C          C       0.02533   0.04985   0.10822   0.04549
C          C       0.95109   0.97576   0.10965   0.04416
C          C       0.04747   0.95421   0.15752  -0.18985
C          C       0.04674   0.09451   0.15324  -0.18740
C          C       0.90671   0.95290   0.15613  -0.18609
C          C       0.06816   0.93048   0.10830   0.02629
C          C       0.06963   0.13847   0.10211   0.02540
C          C       0.86241   0.93080   0.10596   0.02395
C          C       0.19019   0.77295   0.35823  -0.10399
C          C       0.22608   0.41870   0.35175  -0.10324
C          C       0.57750   0.79778   0.33971  -0.10720
C          C       0.13816   0.86419   0.25487   0.08625
C          C       0.13646   0.27598   0.24557   0.08816
C          C       0.72482   0.85957   0.24933   0.08404
C          C       0.51561   0.74473   0.45298   0.07538
C          C       0.24845   0.76574   0.45791   0.07910
C          C       0.23318   0.48419   0.45141   0.07910
C          C       0.24126   0.81291   0.78476  -0.12663
C          C       0.17798   0.42559   0.76712  -0.12658
C          C       0.56699   0.75988   0.79587  -0.12574
C          C       0.26317   0.79075   0.73688  -0.13491
C          C       0.20238   0.47076   0.72343  -0.13416
C          C       0.52340   0.73758   0.74593  -0.13431
C          C       0.30551   0.69036   0.61600   0.01674
C          C       0.30890   0.61579   0.61457   0.01578
C          C       0.38397   0.69390   0.61439   0.01674
C          C       0.28211   0.71091   0.66381  -0.16917
C          C       0.28729   0.57135   0.66074  -0.16858
C          C       0.42839   0.71640   0.66070  -0.16716
C          C       0.26149   0.73370   0.61239   0.01527
C          C       0.26411   0.52835   0.60748   0.01553
C          C       0.47172   0.73507   0.60860   0.01531
C          C       0.19306   0.79945   0.76553   0.04694
C          C       0.19180   0.39109   0.74938   0.04595
C          C       0.60517   0.80468   0.76573   0.04418
C          C       0.17214   0.82506   0.81397   0.07232
C          C       0.16563   0.34404   0.79609   0.07165
C          C       0.65122   0.82567   0.81652   0.07680
C          C       0.69893   0.78411   0.14464   0.08811
C          C       0.21176   0.90867   0.14167   0.08933
C          C       0.09331   0.30487   0.12890   0.08760
C          C       0.74736   0.93248   0.35384   0.08218
C          C       0.06496   0.81773   0.36373   0.08431
C          C       0.18170   0.24969   0.35827   0.08494
C          C       0.77071   0.98704   0.33865  -0.40695
C          C       0.01783   0.77536   0.32410  -0.40700
C          C       0.22043   0.23703   0.32990  -0.40713
C          C       0.75973   0.92119   0.45441  -0.40640
C          C       0.05597   0.84088   0.45252  -0.40687
C          C       0.15533   0.22400   0.45161  -0.40792
C          C       0.71126   0.74597   0.17907  -0.40794
C          C       0.25226   0.95838   0.17582  -0.40968
C          C       0.04143   0.29345   0.14978  -0.40961
C          C       0.69296   0.78265   0.03451  -0.41102
C          C       0.21229   0.90508   0.03119  -0.41170
C          C       0.10382   0.31176   0.02014  -0.40936
C          C       0.81764   0.91587   0.94807   0.05889
C          C       0.07994   0.89708   0.95181   0.06203
C          C       0.10061   0.18186   0.94287   0.06143
C          C       0.10944   0.91496   0.87031  -0.20136
C          C       0.08110   0.19071   0.86067  -0.20377
C          C       0.80678   0.88529   0.86855  -0.20420
C          C       0.12575   0.88791   0.82028   0.00412
C          C       0.10628   0.23357   0.80788   0.00209
C          C       0.76388   0.86845   0.81640   0.00246
C          C       0.81630   0.90548   0.16016   0.06558
C          C       0.09324   0.90994   0.16332   0.06504
C          C       0.09029   0.18466   0.15579   0.06613
C          C       0.13930   0.91953   0.13560  -0.18446
C          C       0.08073   0.22091   0.12719  -0.18400
C          C       0.78143   0.85817   0.13611  -0.18367
C          C       0.16269   0.89774   0.17958   0.00761
C          C       0.10306   0.26654   0.16982   0.00496
C          C       0.73584   0.83435   0.17918   0.00520
C          C       0.07860   0.82075   0.93189   0.01683
C          C       0.17458   0.25930   0.91950   0.01483
C          C       0.74219   0.91603   0.92275   0.00941
C          C       0.06430   0.84952   0.98013  -0.18346
C          C       0.14788   0.21632   0.96960  -0.18582
C          C       0.78509   0.93128   0.97291  -0.18160
C          C       0.18877   0.74116   0.64931  -0.13765
C          C       0.25443   0.44724   0.64210  -0.13823
C          C       0.55549   0.80486   0.63471  -0.13611
C          C       0.02433   0.97453   0.00337   0.04745
C          C       0.02573   0.04899   0.00136   0.04803
C          C       0.95118   0.97553   0.00270   0.04824
C          C       0.04343   0.94959   0.95708  -0.18657
C          C       0.04978   0.09258   0.95302  -0.18961
C          C       0.90719   0.95445   0.95542  -0.19051
C          C       0.06465   0.92671   0.00703   0.02912
C          C       0.07262   0.13745   0.00074   0.02952
C          C       0.86264   0.93291   0.00448   0.03087
C          C       0.16666   0.76258   0.69837  -0.10343
C          C       0.23078   0.40263   0.68704  -0.10140
C          C       0.59864   0.82735   0.68517  -0.10488
C          C       0.11120   0.84086   0.85374   0.08772
C          C       0.15281   0.26859   0.83963   0.08931
C          C       0.73107   0.88323   0.84574   0.08767
C          C       0.51746   0.75937   0.66338   0.07698
C          C       0.23742   0.75540   0.66694   0.08019
C          C       0.24034   0.48169   0.65915   0.07941
C          C       0.25828   0.84448   0.42595  -0.12638
C          C       0.15426   0.41525   0.41691  -0.12667
C          C       0.58971   0.74198   0.43631  -0.12697
C          C       0.27441   0.81601   0.46925  -0.13826
C          C       0.18272   0.45989   0.46072  -0.13772
C          C       0.54458   0.72501   0.47843  -0.13255
C          C       0.30673   0.69119   0.51404   0.03169
C          C       0.30843   0.61680   0.51262   0.03160
C          C       0.38314   0.69245   0.51243   0.03299
C          C       0.28655   0.71388   0.46224  -0.18058
C          C       0.28566   0.57444   0.45906  -0.18248
C          C       0.42572   0.71000   0.45972  -0.18074
C          C       0.26464   0.73623   0.51095   0.02428
C          C       0.26252   0.52969   0.50598   0.02467
C          C       0.47045   0.73036   0.50708   0.02438
C          C       0.21530   0.82319   0.37220   0.04565
C          C       0.17565   0.39357   0.36380   0.04604
C          C       0.60751   0.77977   0.36892   0.04670
C          C       0.19719   0.85357   0.33397   0.06727
C          C       0.14575   0.34491   0.32516   0.06549
C          C       0.65715   0.80079   0.33387   0.06539
C          C       0.75364   0.83522   0.73049   0.08868
C          C       0.15725   0.90937   0.73132   0.08557
C          C       0.08309   0.24055   0.71840   0.08714
C          C       0.70694   0.93229   0.95265   0.08843
C          C       0.06252   0.77013   0.96737   0.08696
C          C       0.22584   0.29595   0.94964   0.09076
C          C       0.67596   0.90242   0.03883  -0.40421
C          C       0.09335   0.77200   0.05428  -0.40575
C          C       0.23461   0.29586   0.05843  -0.41153
C          C       0.73242   0.98649   0.97544  -0.40648
C          C       0.00840   0.74161   0.99185  -0.40824
C          C       0.26212   0.28791   0.89088  -0.40727
C          C       0.79472   0.85781   0.65590  -0.40791
C          C       0.13301   0.92627   0.65749  -0.40802
C          C       0.06657   0.19788   0.64834  -0.41002
C          C       0.74427   0.78518   0.76178  -0.40840
C          C       0.20797   0.95102   0.75709  -0.40864
C          C       0.04080   0.24849   0.74399  -0.40808
C          C       0.43292   0.50451  -0.00018   0.02508
C          C       0.49907   0.93013   0.99360   0.02995
C          C       0.07319   0.57348   0.00388   0.02539
C          C       0.41314   0.52932   0.95522  -0.18597
C          C       0.47376   0.88510   0.95047  -0.18774
C          C       0.11786   0.59149   0.95956  -0.18555
C          C       0.54900   0.41746   0.20881  -0.14443
C          C       0.58571   0.13488   0.20145  -0.14255
C          C       0.86663   0.45390   0.21117  -0.14404
C          C       0.36074   0.64407   0.92219   0.02396
C          C       0.35757   0.71794   0.92133   0.02430
C          C       0.28361   0.64077   0.92337   0.02506
C          C       0.38276   0.62347   0.97463  -0.18298
C          C       0.37884   0.76095   0.97275  -0.18308
C          C       0.24123   0.61950   0.97707  -0.18231
C          C       0.40622   0.60221   0.92729   0.03222
C          C       0.40026   0.80541   0.92428   0.03322
C          C       0.19606   0.59516   0.93127   0.03505
C          C       0.52997   0.44306   0.16422  -0.10993
C          C       0.56056   0.08996   0.15739  -0.11061
C          C       0.91176   0.47463   0.16749  -0.10933
C          C       0.46747   0.52772   0.07447   0.09206
C          C       0.47645   0.94201   0.06839   0.09108
C          C       0.06040   0.53897   0.07884   0.09258
C          C       0.84845   0.41037   0.26251   0.07653
C          C       0.59110   0.44140   0.26516   0.07706
C          C       0.56133   0.15234   0.25809   0.07643
C          C       0.58833   0.47908   0.62937  -0.13683
C          C       0.52415   0.10918   0.62181  -0.13589
C          C       0.88818   0.40639   0.62745  -0.13771
C          C       0.60767   0.45725   0.57211  -0.14375
C          C       0.54520   0.15054   0.56501  -0.14435
C          C       0.84741   0.38765   0.56874  -0.14305
C          C       0.64489   0.36185   0.42331   0.04729
C          C       0.63811   0.28481   0.42096   0.04817
C          C       0.71511   0.35476   0.42238   0.04689
C          C       0.62585   0.38639   0.47122  -0.18397
C          C       0.61450   0.24064   0.46697  -0.18607
C          C       0.75875   0.37223   0.46971  -0.18407
C          C       0.60725   0.41249   0.42338   0.02133
C          C       0.58936   0.19625   0.41728   0.02208
C          C       0.80350   0.39090   0.42140   0.02180
C          C       0.54899   0.48309   0.59683   0.05194
C          C       0.52073   0.06628   0.58808   0.05220
C          C       0.93190   0.44643   0.59778   0.05403
C          C       0.52978   0.50748   0.65541   0.06250
C          C       0.49744   0.02259   0.64685   0.06519
C          C       0.97490   0.46591   0.65911   0.06341
C          C       0.08739   0.49737   0.20509   0.08410
C          C       0.50864   0.59809   0.19742   0.08396
C          C       0.40741   0.91353   0.19437   0.08541
C          C       0.03925   0.59057   0.96935   0.08365
C          C       0.41727   0.45324   0.96914   0.08579
C          C       0.55016   0.96543   0.96035   0.08439
C          C       0.02873   0.58178   0.86072  -0.40466
C          C       0.41639   0.44711   0.85913  -0.40431
C          C       0.55427   0.97150   0.85018  -0.40508
C          C       0.06017   0.64425   0.99420  -0.40584
C          C       0.36770   0.41840   0.01408  -0.40382
C          C       0.58505   0.94949  -0.00081  -0.40474
C          C       0.12609   0.52589   0.28207  -0.40349
C          C       0.48040   0.60841   0.27469  -0.40273
C          C       0.39806   0.87539   0.27184  -0.40333
C          C       0.08598   0.44969   0.18199  -0.41012
C          C       0.55546   0.64472   0.16984  -0.40923
C          C       0.36054   0.91372   0.16984  -0.41082
C          C       0.14883   0.56231   0.77577   0.06961
C          C       0.43599   0.58609   0.77001   0.06832
C          C       0.41727   0.85064   0.76561   0.06701
C          C       0.48270   0.59776   0.79711  -0.18784
C          C       0.40574   0.88592   0.79056  -0.18817
C          C       0.11340   0.51632   0.80622  -0.18821
C          C       0.50867   0.57999   0.74856   0.00961
C          C       0.42419   0.92952   0.74117   0.00855
C          C       0.06917   0.48960   0.75895   0.00988
C          C       0.15109   0.57763   0.98782   0.06502
C          C       0.42535   0.57614   0.98305   0.06659
C          C       0.42683   0.85091   0.97902   0.06501
C          C       0.45570   0.59651   0.06264  -0.20273
C          C       0.40691   0.86150   0.05845  -0.20169
C          C       0.13996   0.54760   0.06823  -0.20166
C          C       0.47731   0.57345   0.10955   0.00291
C          C       0.43078   0.90632   0.10502   0.00185
C          C       0.09524   0.52784   0.11524   0.00246
C          C       0.44043   0.53980   0.63522   0.02612
C          C       0.46520   0.90099   0.63135   0.02292
C          C       0.09731   0.55538   0.64026   0.02464
C          C       0.41604   0.55812   0.68715  -0.19765
C          C       0.44612   0.85834   0.68402  -0.19585
C          C       0.14037   0.58067   0.69113  -0.19833
C          C       0.54626   0.43920   0.45245  -0.13057
C          C       0.56393   0.10850   0.44363  -0.12788
C          C       0.89165   0.45091   0.45327  -0.13102
C          C       0.36083   0.64354   0.82009   0.01393
C          C       0.35713   0.71798   0.81930   0.01199
C          C       0.28228   0.63937   0.82134   0.01294
C          C       0.38505   0.62362   0.77345  -0.17650
C          C       0.37744   0.76192   0.77168  -0.17421
C          C       0.23765   0.61423   0.77625  -0.17470
C          C       0.40860   0.60380   0.82534   0.02186
C          C       0.39851   0.80572   0.82233   0.02228
C          C       0.19447   0.59094   0.82951   0.02078
C          C       0.52815   0.46265   0.50742  -0.11165
C          C       0.54095   0.06661   0.49797  -0.11342
C          C       0.93294   0.46825   0.50931  -0.11375
C          C       0.48607   0.54842   0.66907   0.09017
C          C       0.45614   0.93804   0.66262   0.09163
C          C       0.06015   0.51024   0.67637   0.09076
C          C       0.84800   0.40964   0.48047   0.06936
C          C       0.58709   0.43679   0.48231   0.06985
C          C       0.56566   0.15123   0.47473   0.06941
C          C       0.59788   0.51774   0.22124  -0.12628
C          C       0.48533   0.08132   0.21590  -0.12567
C          C       0.91895   0.40589   0.21511  -0.12722
C          C       0.61571   0.49190   0.26957  -0.13631
C          C       0.51080   0.12534   0.26358  -0.13495
C          C       0.87467   0.38615   0.26236  -0.13787
C          C       0.64496   0.36241   0.31651   0.04930
C          C       0.63824   0.28545   0.31410   0.04918
C          C       0.71532   0.35576   0.31558   0.05023
C          C       0.62636   0.38803   0.27100  -0.18876
C          C       0.61357   0.24154   0.26674  -0.18824
C          C       0.75955   0.37455   0.26954  -0.18855
C          C       0.60807   0.41344   0.32176   0.02519
C          C       0.58865   0.19717   0.31571   0.02455
C          C       0.80340   0.39185   0.31976   0.02454
C          C       0.55388   0.49360   0.17120   0.04941
C          C       0.50999   0.06241   0.16485   0.04927
C          C       0.93886   0.45119   0.17033   0.04955
C          C       0.53325   0.52121   0.12976   0.06905
C          C       0.48285   0.01415   0.12277   0.06937
C          C       0.98757   0.47324   0.13005   0.06923
C          C       0.03309   0.44026   0.79967   0.08817
C          C       0.56019   0.59705   0.78117   0.08518
C          C       0.40777   0.96447   0.77309   0.08688
C          C       0.08829   0.57706   0.55118   0.08316
C          C       0.41771   0.50904   0.54636   0.08234
C          C       0.49814   0.90976   0.54569   0.08421
C          C       0.06196   0.60448   0.57882  -0.40420
C          C       0.38854   0.45513   0.57284  -0.40266
C          C       0.55119   0.93356   0.57895  -0.40331
C          C       0.13425   0.60931   0.49314  -0.41245
C          C       0.38725   0.52496   0.48856  -0.41057
C          C       0.48403   0.86409   0.48636  -0.41049
C          C       0.05529   0.40802   0.81658  -0.40759
C          C       0.58985   0.65240   0.78964  -0.40603
C          C       0.35238   0.93943   0.78184  -0.40716
C          C       0.01094   0.44567   0.89418  -0.41387
C          C       0.56148   0.57383   0.87758  -0.41185
C          C       0.43124   0.98915   0.86937  -0.41076
C          C       0.33271   0.66712   0.47630  -0.03932
C          C       0.33294   0.66675   0.66163   0.03311
C          C       0.33318   0.66680   0.77369   0.03340
C          C       0.33418   0.66780   0.95813  -0.00194
C          C       0.00044  -0.00044   0.96347  -0.07471
C          C       0.00059   0.00077   0.14847  -0.07442
C          C       0.66619   0.33486   0.27622  -0.07169
C          C       0.66590   0.33367   0.46128  -0.06925
N          N       0.15526   0.83541   0.29481  -0.26123
N          N       0.16470   0.32198   0.28577  -0.26337
N          N       0.67818   0.84092   0.28736  -0.26186
N          N       0.12705   0.81187   0.80870  -0.26818
N          N       0.18001   0.31312   0.79203  -0.26710
N          N       0.68732   0.86717   0.79516  -0.26599
N          N       0.48772   0.50140   0.11262  -0.27045
N          N       0.50304   0.98891   0.10543  -0.27174
N          N       0.01327   0.51895   0.11500  -0.27227
N          N       0.50613   0.52574   0.61615  -0.27026
N          N       0.47847   0.98044   0.60819  -0.27131
N          N       0.01755   0.48907   0.62223  -0.26998

