data_crystal

_audit_creation_method 'AiiDA-DDEC plugin'

_cell_length_a        50.13527
_cell_length_b         9.68969
_cell_length_c        50.74736

_cell_angle_alpha     89.76725
_cell_angle_beta     118.92715
_cell_angle_gamma     96.43344

_symmetry_space_group_name_Hall 'P 1'
_symmetry_space_group_name_H-M  'P 1'

loop_
_symmetry_equiv_pos_as_xyz
 'x,y,z'

loop_
_atom_site_label
_atom_site_type_symbol
_atom_site_fract_x
_atom_site_fract_y
_atom_site_fract_z
_atom_site_charge
H          H       0.06735   0.22188   0.70258   0.11142
H          H       0.08689   0.87259   0.71622   0.10965
H          H       0.01407   0.15045   0.60657   0.11112
H          H       0.04380   0.84299   0.61983   0.11142
H          H       0.06253   0.16420   0.60307   0.11964
H          H       0.09551   0.84310   0.62292   0.12369
H          H       0.11575   0.23320   0.69938   0.10932
H          H       0.13845   0.87180   0.71968   0.10694
H          H       0.02978   0.14352   0.73775   0.10897
H          H       0.04630   0.81545   0.74459   0.10764
H          H       0.94185   0.29389   0.74482   0.11904
H          H       0.94634   0.86046   0.73957   0.12145
H          H       0.96649   0.22755   0.88453   0.11090
H          H       0.96008   0.94501   0.86983   0.11018
H          H       0.96655   0.29471   0.83697   0.11702
H          H       0.96140   0.88965   0.82271   0.12091
H          H       0.72380   0.78144   0.38069   0.11884
H          H       0.70846   0.26689   0.38477   0.11632
H          H       0.22908   0.75936   0.64683   0.11018
H          H       0.20132   0.43645   0.63195   0.11438
H          H       0.18858   0.85947   0.65324   0.11870
H          H       0.15135   0.33694   0.62825   0.11725
H          H       0.20648   0.60406   0.72808   0.10751
H          H       0.19938   0.08795   0.70297   0.10609
H          H       0.24667   0.50470   0.72167   0.11518
H          H       0.24930   0.18758   0.70706   0.10961
H          H       0.16261   0.71717   0.70833   0.06820
H          H       0.14502   0.10522   0.68512   0.06492
H          H       0.62440   0.14206   0.91000   0.11194
H          H       0.62527   0.79096   0.92002   0.11198
H          H       0.58017   0.24024   0.96039   0.11131
H          H       0.58859   0.88160   0.97783   0.11193
H          H       0.53064   0.24480   0.91231   0.12221
H          H       0.53595   0.87084   0.93302   0.12041
H          H       0.57523   0.14679   0.86196   0.10561
H          H       0.57280   0.78120   0.87498   0.10923
H          H       0.69477   0.19033   0.94578   0.10983
H          H       0.69909   0.82996   0.94973   0.11202
H          H       0.78955   0.10753   0.03896   0.10887
H          H       0.78707   0.65801   0.03803   0.10976
H          H       0.92885   0.24953   0.04401   0.10877
H          H       0.92370   0.93212   0.05488   0.11358
H          H       0.88210   0.30533   0.04478   0.10554
H          H       0.87615   0.86385   0.05822   0.10597
H          H       0.68152   0.75042   0.28295   0.11776
H          H       0.66185   0.23379   0.27878   0.11590
H          H       0.42553   0.55437   0.80094   0.11485
H          H       0.41439   0.23145   0.77736   0.11092
H          H       0.47012   0.66887   0.84783   0.11819
H          H       0.46219   0.15169   0.81806   0.11540
H          H       0.49493   0.94402   0.79444   0.10939
H          H       0.51641   0.44264   0.79330   0.10905
H          H       0.45065   0.82934   0.74759   0.10988
H          H       0.46894   0.52500   0.75343   0.11408
H          H       0.53140   0.93311   0.84827   0.06626
H          H       0.54227   0.32054   0.83643   0.06931
H          H       0.28846   0.20034   0.37914   0.11165
H          H       0.29335   0.84410   0.37561   0.11224
H          H       0.38289   0.13223   0.41991   0.10976
H          H       0.38693   0.76188   0.41632   0.11318
H          H       0.38745   0.15061   0.47123   0.12267
H          H       0.39014   0.76660   0.46708   0.12046
H          H       0.29241   0.21508   0.43036   0.10865
H          H       0.29614   0.84796   0.42592   0.10568
H          H       0.25084   0.14271   0.30710   0.11196
H          H       0.25335   0.71790   0.30377   0.11300
H          H       0.25705   0.25737   0.21433   0.10621
H          H       0.25129   0.90230   0.21144   0.10585
H          H       0.13183   0.27225   0.08005   0.10827
H          H       0.13624   0.94300   0.08084   0.11174
H          H       0.18029   0.35703   0.12677   0.10316
H          H       0.18382   0.88299   0.12486   0.10319
H          H       0.61772   0.76061   0.32518   0.11499
H          H       0.60897   0.24373   0.32589   0.11831
H          H       0.36962   0.75923   0.58730   0.11130
H          H       0.37105   0.44675   0.57564   0.11531
H          H       0.36766   0.83405   0.53952   0.11785
H          H       0.36963   0.33052   0.53115   0.11621
H          H       0.28077   0.57865   0.48902   0.10706
H          H       0.28786   0.06657   0.51505   0.10687
H          H       0.28283   0.50399   0.53649   0.11450
H          H       0.28874   0.18413   0.55904   0.10986
H          H       0.30244   0.68392   0.46206   0.06280
H          H       0.30565   0.06781   0.47692   0.06888
H          H       0.72245   0.85153   0.08204   0.11062
H          H       0.70358   0.17587   0.07651   0.10808
H          H       0.62584   0.87289   0.04283   0.11327
H          H       0.60863   0.23037   0.02197   0.10932
H          H       0.63090   0.88322   0.09454   0.12159
H          H       0.60383   0.25635   0.06849   0.11878
H          H       0.72789   0.86246   0.13369   0.10920
H          H       0.69882   0.19784   0.12290   0.11043
H          H       0.74056   0.70588   0.04088   0.11101
H          H       0.74075   0.12070   0.04018   0.11184
H          H       0.74647   0.78911   0.94715   0.12143
H          H       0.74337   0.17479   0.94408   0.11954
H          H       0.88291   0.70734   0.96873   0.11188
H          H       0.87202   0.00324   0.96117   0.11310
H          H       0.83461   0.64372   0.97150   0.11802
H          H       0.82523   0.05434   0.96270   0.11975
H          H       0.38513   0.25762   0.71770   0.11554
H          H       0.38779   0.77235   0.72187   0.11870
H          H       0.62979   0.45910   0.20007   0.11431
H          H       0.65287   0.77915   0.22616   0.11088
H          H       0.62503   0.36058   0.15247   0.11666
H          H       0.66130   0.87380   0.18462   0.10951
H          H       0.69187   0.08802   0.20394   0.10651
H          H       0.72829   0.59370   0.20324   0.11212
H          H       0.69685   0.18740   0.25139   0.11040
H          H       0.71909   0.49626   0.24381   0.11494
H          H       0.67318   0.09432   0.14953   0.06732
H          H       0.71137   0.71360   0.15891   0.07159
H          H       0.92047   0.83330   0.62271   0.11160
H          H       0.90043   0.17561   0.62634   0.11163
H          H       0.97945   0.83412   0.58353   0.10972
H          H       0.94845   0.16720   0.57601   0.11183
H          H       0.93340   0.80955   0.53187   0.11843
H          H       0.89871   0.16437   0.52769   0.12259
H          H       0.87451   0.81217   0.57132   0.11187
H          H       0.85071   0.17613   0.57840   0.11012
H          H       0.95076   0.86232   0.69242   0.11461
H          H       0.94007   0.27521   0.69468   0.11124
H          H       0.04212   0.81089   0.79155   0.10550
H          H       0.03075   0.15035   0.78694   0.10804
H          H       0.04363   0.76437   0.92174   0.10834
H          H       0.05655   0.10329   0.91868   0.11288
H          H       0.04350   0.69878   0.87445   0.10282
H          H       0.05755   0.17946   0.87236   0.10443
H          H       0.27823   0.22322   0.67148   0.11786
H          H       0.28854   0.74044   0.67820   0.11706
H          H       0.76655   0.23028   0.41555   0.10983
H          H       0.79845   0.55085   0.42439   0.11516
H          H       0.80577   0.14870   0.46395   0.11041
H          H       0.84685   0.65445   0.46951   0.11870
H          H       0.78741   0.45176   0.51288   0.11024
H          H       0.79678   0.94361   0.48570   0.10680
H          H       0.74906   0.53562   0.46466   0.11540
H          H       0.74839   0.84109   0.44063   0.10980
H          H       0.83027   0.33376   0.53990   0.07186
H          H       0.84962   0.92686   0.52369   0.07012
H          H       0.36782   0.70763   0.28625   0.11113
H          H       0.36649   0.06812   0.29328   0.11150
H          H       0.41864   0.84179   0.37989   0.11178
H          H       0.41606   0.19709   0.38719   0.11298
H          H       0.46801   0.82394   0.37957   0.12155
H          H       0.46607   0.19169   0.38699   0.12004
H          H       0.41694   0.68685   0.28578   0.10718
H          H       0.41593   0.05700   0.29301   0.10672
H          H       0.30098   0.89095   0.25798   0.11042
H          H       0.30437   0.22872   0.26258   0.10941
H          H       0.20301   0.71987   0.25624   0.11851
H          H       0.20263   0.16525   0.25818   0.11928
H          H       0.08461   0.80955   0.12566   0.10955
H          H       0.09305   0.09716   0.13373   0.11143
H          H       0.13279   0.75651   0.17059   0.11558
H          H       0.14270   0.17038   0.18061   0.11615
H          H       0.32837   0.22912   0.61853   0.11750
H          H       0.33341   0.74505   0.61764   0.11900
H          H       0.58120   0.24605   0.36251   0.11155
H          H       0.56819   0.54951   0.36264   0.11413
H          H       0.53216   0.14309   0.36052   0.11808
H          H       0.52068   0.63009   0.35800   0.11640
H          H       0.48096   0.31451   0.27439   0.10644
H          H       0.50629   0.83250   0.27758   0.10628
H          H       0.52971   0.41759   0.27654   0.11419
H          H       0.55347   0.75041   0.28185   0.10769
H          H       0.45413   0.22255   0.29831   0.06559
H          H       0.46631   0.82304   0.29395   0.06869
H          H       0.03360   0.26075   0.82331   0.06234
H          H       0.02289   0.70879   0.81988   0.06717
H          H       0.82703   0.26231   0.02678   0.07048
H          H       0.82402   0.79702   0.03454   0.06236
H          H       0.21396   0.34849   0.18267   0.06997
H          H       0.21058   0.80427   0.17383   0.06104
H          H       0.66257   0.25871   0.33058   0.09899
H          H       0.67214   0.75545   0.32905   0.09956
H          H       0.33637   0.74278   0.67087   0.10011
H          H       0.33055   0.24626   0.67044   0.09952
H          H       0.00139   0.74652   0.94876   0.11613
H          H       0.01147   0.26432   0.95453   0.11840
H          H       0.95178   0.73038   0.00489   0.11963
H          H       0.95649   0.24669   0.00361   0.11574
H          H       0.05388   0.75663   0.05154   0.11818
H          H       0.06181   0.27381   0.05490   0.11896
H          H       0.00192   0.75423   0.00093   0.09879
H          H       0.00964   0.25117   0.00477   0.09791
C          C       0.58679   0.42518   0.32340   0.02154
C          C       0.58918   0.57238   0.32323   0.02093
C          C       0.00915   0.18604   0.65644   0.37496
C          C       0.03182   0.84830   0.66571   0.37341
C          C       0.06656   0.20764   0.68096  -0.08716
C          C       0.08914   0.86327   0.69605  -0.08651
C          C       0.03770   0.18634   0.65477  -0.01170
C          C       0.06228   0.85287   0.66786  -0.00463
C          C       0.03648   0.16855   0.62664  -0.08981
C          C       0.06470   0.84730   0.64143  -0.08163
C          C       0.06324   0.17551   0.62471  -0.16556
C          C       0.09316   0.84750   0.64312  -0.16061
C          C       0.09226   0.19730   0.65096   0.22083
C          C       0.11985   0.84967   0.67131   0.20865
C          C       0.09346   0.21274   0.67916  -0.18136
C          C       0.11766   0.86202   0.69787  -0.20027
C          C       0.01085   0.17825   0.73960  -0.09088
C          C       0.02439   0.82226   0.74371  -0.09130
C          C       0.96101   0.26175   0.74299  -0.15926
C          C       0.96792   0.84694   0.74029  -0.15594
C          C       0.98654   0.21841   0.88189  -0.13988
C          C       0.97850   0.89199   0.87082  -0.12931
C          C       0.98640   0.25563   0.85528  -0.10581
C          C       0.97900   0.86082   0.84443  -0.10019
C          C       0.69211   0.44383   0.35850   0.03942
C          C       0.69525   0.58951   0.35806   0.04512
C          C       0.72006   0.66923   0.38167  -0.19270
C          C       0.71202   0.37909   0.38373  -0.19089
C          C       0.23994   0.62217   0.68324   0.07889
C          C       0.22884   0.32364   0.67056   0.07154
C          C       0.22438   0.72741   0.66492  -0.14554
C          C       0.20077   0.36040   0.64751  -0.13740
C          C       0.20173   0.78302   0.66829  -0.10483
C          C       0.17300   0.30547   0.64529  -0.09860
C          C       0.19421   0.73463   0.69038   0.04801
C          C       0.17228   0.21105   0.66615   0.05164
C          C       0.21157   0.63829   0.71036  -0.12459
C          C       0.19993   0.16502   0.68753  -0.12544
C          C       0.23408   0.58269   0.70682  -0.13690
C          C       0.22794   0.22008   0.68965  -0.14818
C          C       0.16694   0.76728   0.69105   0.06744
C          C       0.14371   0.17078   0.66693   0.07942
C          C       0.73631   0.45864   0.40854   0.01902
C          C       0.74137   0.60459   0.40668   0.02413
C          C       0.63421   0.18843   0.96692   0.37271
C          C       0.64038   0.83383   0.97807   0.37537
C          C       0.60390   0.16647   0.91022  -0.08350
C          C       0.60557   0.81002   0.92239  -0.08579
C          C       0.60546   0.19286   0.93817  -0.00493
C          C       0.61000   0.83648   0.95153  -0.01688
C          C       0.57877   0.22119   0.93864  -0.08819
C          C       0.58474   0.86019   0.95517  -0.08865
C          C       0.55136   0.22343   0.91208  -0.16220
C          C       0.55565   0.85467   0.93040  -0.16828
C          C       0.54991   0.20025   0.88403   0.20950
C          C       0.55113   0.82828   0.90112   0.22265
C          C       0.57648   0.17032   0.88347  -0.19737
C          C       0.57655   0.80635   0.89746  -0.18585
C          C       0.71573   0.17316   0.96602  -0.08736
C          C       0.71861   0.79372   0.96894  -0.08864
C          C       0.76905   0.12925   0.01867  -0.18784
C          C       0.76820   0.69937   0.01903  -0.19017
C          C       0.90623   0.20817   0.02585  -0.14721
C          C       0.90442   0.86643   0.03699  -0.13742
C          C       0.87984   0.23806   0.02647  -0.13054
C          C       0.87783   0.82881   0.03877  -0.12502
C          C       0.66819   0.42582   0.30351   0.04193
C          C       0.67174   0.57165   0.30368   0.04228
C          C       0.67687   0.63770   0.28196  -0.19321
C          C       0.66664   0.34650   0.27991  -0.19005
C          C       0.43560   0.68088   0.77095   0.07264
C          C       0.43847   0.38732   0.76329   0.07334
C          C       0.44072   0.64004   0.79961  -0.13550
C          C       0.43677   0.27688   0.78075  -0.14399
C          C       0.46541   0.70357   0.82577  -0.10047
C          C       0.46340   0.23213   0.80354  -0.10431
C          C       0.48596   0.81051   0.82419   0.05126
C          C       0.49245   0.29524   0.80901   0.04941
C          C       0.47959   0.85905   0.79586  -0.12787
C          C       0.49404   0.39650   0.78975  -0.12726
C          C       0.45459   0.79519   0.76952  -0.14866
C          C       0.46746   0.44237   0.76737  -0.13301
C          C       0.51494   0.85862   0.85114   0.07768
C          C       0.52099   0.27107   0.83554   0.06539
C          C       0.66989   0.41207   0.25665   0.02205
C          C       0.67689   0.55885   0.25881   0.02000
C          C       0.33419   0.16121   0.36703   0.37397
C          C       0.33776   0.79453   0.36262   0.37590
C          C       0.30976   0.18736   0.39946  -0.08821
C          C       0.31418   0.82405   0.39570  -0.08642
C          C       0.33545   0.16560   0.39656  -0.01432
C          C       0.33962   0.79866   0.39260  -0.00742
C          C       0.36335   0.15023   0.42265  -0.08625
C          C       0.36715   0.77933   0.41872  -0.09048
C          C       0.36584   0.15938   0.45093  -0.16606
C          C       0.36896   0.78217   0.44692  -0.16494
C          C       0.34003   0.18008   0.45395   0.21952
C          C       0.34303   0.80093   0.44990   0.21590
C          C       0.31190   0.19357   0.42780  -0.19362
C          C       0.31581   0.82529   0.42385  -0.18541
C          C       0.25171   0.16911   0.28666  -0.09247
C          C       0.25254   0.75466   0.28315  -0.09588
C          C       0.25555   0.23434   0.23461  -0.18257
C          C       0.25151   0.85540   0.23103  -0.18079
C          C       0.13384   0.25360   0.10206  -0.14646
C          C       0.13533   0.89924   0.10020  -0.13906
C          C       0.16121   0.29963   0.12836  -0.13260
C          C       0.16203   0.86610   0.12497  -0.12798
C          C       0.63708   0.43249   0.32776   0.04260
C          C       0.63957   0.57804   0.32720   0.03839
C          C       0.61576   0.64765   0.32493  -0.18806
C          C       0.61108   0.35672   0.32599  -0.19216
C          C       0.32667   0.62351   0.56539   0.07431
C          C       0.32937   0.32663   0.56964   0.07513
C          C       0.34985   0.72145   0.56575  -0.14269
C          C       0.35287   0.36362   0.56231  -0.13287
C          C       0.34892   0.76329   0.53897  -0.10441
C          C       0.35229   0.29915   0.53778  -0.10003
C          C       0.32439   0.70977   0.51082   0.05007
C          C       0.32822   0.19477   0.51980   0.04836
C          C       0.30010   0.62027   0.51055  -0.12666
C          C       0.30612   0.14964   0.52844  -0.12856
C          C       0.30119   0.57799   0.53726  -0.13710
C          C       0.30671   0.21508   0.55326  -0.15119
C          C       0.32354   0.73249   0.48186   0.07084
C          C       0.32512   0.14606   0.49111   0.07402
C          C       0.32957   0.55601   0.59294   0.02031
C          C       0.32875   0.40922   0.59372   0.02157
C          C       0.67037   0.84195   0.02912   0.37282
C          C       0.65855   0.19092   0.01835   0.37615
C          C       0.70260   0.85668   0.08517  -0.08779
C          C       0.68179   0.19293   0.07492  -0.08730
C          C       0.67368   0.85644   0.05944  -0.00383
C          C       0.65640   0.20134   0.04623  -0.00932
C          C       0.64786   0.86843   0.06291  -0.08511
C          C       0.62812   0.22260   0.04421  -0.09192
C          C       0.65067   0.87455   0.09145  -0.15934
C          C       0.62540   0.23656   0.06994  -0.17352
C          C       0.67924   0.86501   0.11711   0.21060
C          C       0.65067   0.22545   0.09872   0.21877
C          C       0.70547   0.86145   0.11379  -0.19317
C          C       0.67903   0.20412   0.10079  -0.18036
C          C       0.74230   0.72448   0.02060  -0.09377
C          C       0.74169   0.13543   0.01936  -0.08693
C          C       0.74466   0.76998   0.96737  -0.16301
C          C       0.74273   0.16505   0.96512  -0.17008
C          C       0.88147   0.73989   0.98846  -0.14085
C          C       0.87419   0.06878   0.97960  -0.13170
C          C       0.85457   0.70372   0.98994  -0.10294
C          C       0.84799   0.09692   0.98032  -0.10115
C          C       0.36287   0.57834   0.69720   0.04268
C          C       0.36128   0.43273   0.69685   0.04160
C          C       0.38544   0.36988   0.71868  -0.19021
C          C       0.38738   0.66013   0.72068  -0.19112
C          C       0.66440   0.33374   0.22907   0.06919
C          C       0.68487   0.62921   0.23722   0.07694
C          C       0.64324   0.37752   0.20073  -0.13509
C          C       0.66974   0.74076   0.22135  -0.14465
C          C       0.64054   0.32331   0.17421  -0.10330
C          C       0.67445   0.79399   0.19827  -0.10701
C          C       0.65900   0.22196   0.17506   0.05380
C          C       0.69500   0.73861   0.19095   0.04794
C          C       0.67807   0.16901   0.20301  -0.12971
C          C       0.71197   0.63491   0.20847  -0.12506
C          C       0.68074   0.22406   0.22975  -0.15003
C          C       0.70693   0.58073   0.23126  -0.13257
C          C       0.66018   0.18122   0.14793   0.07358
C          C       0.69654   0.77246   0.16377   0.07107
C          C       0.41130   0.59758   0.74377   0.02219
C          C       0.41107   0.45145   0.74184   0.01938
C          C       0.97989   0.84039   0.63663   0.37588
C          C       0.95703   0.18189   0.63244   0.37390
C          C       0.92302   0.82930   0.60266  -0.08589
C          C       0.89974   0.17609   0.60460  -0.09000
C          C       0.95278   0.83443   0.60638  -0.01253
C          C       0.92756   0.17621   0.60413  -0.00362
C          C       0.95638   0.82988   0.58053  -0.09069
C          C       0.92694   0.17070   0.57615  -0.08454
C          C       0.93098   0.81666   0.55196  -0.17177
C          C       0.89942   0.16924   0.54944  -0.16154
C          C       0.90108   0.81157   0.54817   0.22010
C          C       0.87180   0.17811   0.54993   0.20676
C          C       0.89748   0.81856   0.57402  -0.18149
C          C       0.87217   0.17728   0.57789  -0.19240
C          C       0.97037   0.84826   0.71417  -0.09141
C          C       0.96008   0.25159   0.71521  -0.09649
C          C       0.02189   0.81872   0.76984  -0.18715
C          C       0.01151   0.18496   0.76722  -0.17992
C          C       0.02511   0.78889   0.90008  -0.14593
C          C       0.03721   0.14877   0.90117  -0.13831
C          C       0.02523   0.75355   0.87341  -0.13095
C          C       0.03761   0.19045   0.87507  -0.12748
C          C       0.30743   0.56018   0.67300   0.04157
C          C       0.30541   0.41441   0.67263   0.04199
C          C       0.28067   0.33621   0.67316  -0.19059
C          C       0.28604   0.62755   0.67616  -0.19282
C          C       0.75589   0.39243   0.43674   0.07574
C          C       0.76995   0.68491   0.43027   0.07107
C          C       0.77090   0.27776   0.43691  -0.14320
C          C       0.79825   0.63718   0.43784  -0.13701
C          C       0.79278   0.23135   0.46394  -0.10765
C          C       0.82516   0.69431   0.46279  -0.10324
C          C       0.79986   0.29656   0.49171   0.04753
C          C       0.82469   0.80187   0.48106   0.05355
C          C       0.78273   0.40244   0.49158  -0.12403
C          C       0.79707   0.85792   0.47207  -0.12644
C          C       0.76115   0.44954   0.46453  -0.13099
C          C       0.76996   0.80088   0.44674  -0.14944
C          C       0.82620   0.26983   0.52017   0.07391
C          C       0.85174   0.84593   0.51003   0.07538
C          C       0.26139   0.55017   0.67761   0.01995
C          C       0.25778   0.40281   0.67453   0.02204
C          C       0.36164   0.78422   0.33424   0.37205
C          C       0.35953   0.14636   0.34022   0.37639
C          C       0.38991   0.73434   0.30641  -0.09360
C          C       0.38845   0.09756   0.31342  -0.08810
C          C       0.39022   0.77585   0.33308  -0.00620
C          C       0.38847   0.13754   0.33998  -0.00900
C          C       0.41865   0.80871   0.35948  -0.08955
C          C       0.41658   0.16884   0.36674  -0.09049
C          C       0.44592   0.79927   0.35928  -0.15888
C          C       0.44411   0.16507   0.36667  -0.16430
C          C       0.44575   0.75783   0.33261   0.21542
C          C       0.44416   0.13127   0.33973   0.21682
C          C       0.41729   0.72512   0.30610  -0.18990
C          C       0.41597   0.09283   0.31330  -0.18465
C          C       0.27942   0.85115   0.25717  -0.09215
C          C       0.28197   0.21810   0.26137  -0.09145
C          C       0.22465   0.75595   0.25685  -0.15777
C          C       0.22520   0.18214   0.25980  -0.15528
C          C       0.10631   0.82443   0.12537  -0.13993
C          C       0.11239   0.15318   0.13243  -0.13409
C          C       0.13314   0.79479   0.15055  -0.10185
C          C       0.13969   0.19500   0.15847  -0.09942
C          C       0.33277   0.56378   0.64229   0.04047
C          C       0.33083   0.41815   0.64231   0.04294
C          C       0.32893   0.34161   0.61831  -0.19281
C          C       0.33219   0.63232   0.61785  -0.19176
C          C       0.55855   0.34287   0.32016   0.07412
C          C       0.56391   0.64243   0.32234   0.07128
C          C       0.55914   0.25884   0.34306  -0.14250
C          C       0.55481   0.61284   0.34427  -0.13161
C          C       0.53196   0.20121   0.34206  -0.10169
C          C       0.52844   0.65702   0.34181  -0.10128
C          C       0.50344   0.22495   0.31772   0.04906
C          C       0.51015   0.73431   0.31742   0.04821
C          C       0.50298   0.29819   0.29356  -0.12800
C          C       0.52000   0.77103   0.29636  -0.12996
C          C       0.53017   0.35626   0.29471  -0.13534
C          C       0.54669   0.72608   0.29894  -0.14771
C          C       0.47455   0.19134   0.31801   0.06882
C          C       0.48118   0.77053   0.31424   0.06962
C          C       0.93066   0.05524   0.00480   0.02090
C          C       0.93010   0.90840   0.00612   0.02175
C          C       0.08313   0.09518   0.07725   0.02299
C          C       0.08096   0.94779   0.07636   0.02187
C          C       0.00817   0.08104   0.92864   0.01975
C          C       0.00501   0.93338   0.92676   0.02280
C          C       0.98425   0.19882   0.68378   0.37773
C          C       0.00162   0.84142   0.68791   0.37415
C          C       0.98511   0.21079   0.71317  -0.00390
C          C       0.99868   0.83631   0.71548  -0.00488
C          C       0.98687   0.23014   0.76957   0.21013
C          C       0.99345   0.83010   0.76858   0.21482
C          C       0.01112   0.15649   0.90437   0.07208
C          C       0.00246   0.86438   0.89929   0.07176
C          C       0.01152   0.23657   0.85103   0.05550
C          C       0.00309   0.79492   0.84540   0.04942
C          C       0.01095   0.24968   0.82209   0.07326
C          C       0.00581   0.77548   0.81823   0.07146
C          C       0.68553   0.16973   0.99330   0.37436
C          C       0.69077   0.80228   0.99877   0.37522
C          C       0.71467   0.15901   0.99316  -0.01064
C          C       0.71740   0.77344   0.99581  -0.00753
C          C       0.77015   0.14581   0.99153   0.21773
C          C       0.77005   0.72595   0.99259   0.21905
C          C       0.90392   0.11705   0.00320   0.07447
C          C       0.90571   0.83065   0.01087   0.07152
C          C       0.85037   0.17781   0.00456   0.04862
C          C       0.85189   0.75535   0.01433   0.05006
C          C       0.82314   0.19548   0.00745   0.07104
C          C       0.82263   0.75211   0.01393   0.06957
C          C       0.30855   0.16872   0.31589   0.37233
C          C       0.31011   0.79539   0.31131   0.37851
C          C       0.28040   0.18599   0.28770  -0.00109
C          C       0.28040   0.79988   0.28356  -0.00330
C          C       0.22666   0.21678   0.23347   0.21452
C          C       0.22355   0.80386   0.23011   0.21111
C          C       0.10965   0.17400   0.10377   0.07187
C          C       0.10723   0.88351   0.10040   0.07339
C          C       0.16504   0.26380   0.15676   0.05268
C          C       0.16164   0.81958   0.15110   0.05647
C          C       0.19512   0.28402   0.18392   0.06828
C          C       0.19103   0.80661   0.17799   0.07290
C          C       0.66477   0.37214   0.33014  -0.08203
C          C       0.67003   0.64199   0.32951  -0.08241
C          C       0.33509   0.62935   0.67077  -0.08526
C          C       0.33181   0.35977   0.67061  -0.08380
C          C       0.00378   0.85954   0.95018  -0.18924
C          C       0.00894   0.15127   0.95318  -0.19293
C          C       0.95281   0.84298   0.00434  -0.19246
C          C       0.95568   0.13417   0.00421  -0.18919
C          C       0.05542   0.86947   0.05239  -0.19473
C          C       0.06002   0.16096   0.05405  -0.19342
C          C       0.00380   0.86791   0.00181  -0.08288
C          C       0.00783   0.13748   0.00389  -0.08045
C          C       0.97692   0.92252   0.00294   0.04197
C          C       0.97882   0.06823   0.00376   0.03840
C          C       0.03262   0.93635   0.02962   0.04042
C          C       0.03484   0.08208   0.03056   0.03886
C          C       0.00490   0.93084   0.97458   0.03802
C          C       0.00713   0.07661   0.97585   0.04151
N          N       0.95660   0.19283   0.65871  -0.41803
N          N       0.97577   0.83970   0.66107  -0.41577
N          N       0.14725   0.83846   0.67085  -0.29130
N          N       0.11841   0.21473   0.64758  -0.28370
N          N       0.68583   0.17569   0.02007  -0.41698
N          N       0.69520   0.81695   0.02711  -0.42009
N          N       0.52138   0.80961   0.87694  -0.27512
N          N       0.52151   0.20716   0.85814  -0.28521
N          N       0.33390   0.15406   0.31373  -0.41822
N          N       0.33524   0.78906   0.30820  -0.42040
N          N       0.34610   0.79475   0.47895  -0.28448
N          N       0.34424   0.20067   0.48276  -0.26599
N          N       0.66402   0.81119   0.97350  -0.41404
N          N       0.66027   0.17476   0.96612  -0.41404
N          N       0.64672   0.24704   0.12375  -0.28350
N          N       0.67932   0.85554   0.14472  -0.29233
N          N       0.03020   0.84646   0.69144  -0.41941
N          N       0.01114   0.19540   0.68390  -0.41499
N          N       0.84538   0.18648   0.52205  -0.29471
N          N       0.87649   0.78831   0.51895  -0.28433
N          N       0.31006   0.79761   0.33790  -0.41516
N          N       0.30731   0.17139   0.34188  -0.41517
N          N       0.47286   0.14197   0.34089  -0.28585
N          N       0.47395   0.74021   0.33494  -0.27083
N          N       0.98257   0.17784   0.63015  -0.40986
N          N       0.00745   0.84443   0.63789  -0.41279
N          N       0.98573   0.23847   0.79666  -0.28754
N          N       0.98925   0.83601   0.79388  -0.28118
N          N       0.63230   0.19833   0.99236  -0.41218
N          N       0.64245   0.85095   0.00540  -0.41174
N          N       0.79616   0.13567   0.98842  -0.27463
N          N       0.79645   0.71282   0.99039  -0.28610
N          N       0.36084   0.14932   0.36731  -0.41192
N          N       0.36405   0.78741   0.36185  -0.40908
N          N       0.19854   0.22078   0.20757  -0.28137
N          N       0.19424   0.80285   0.20482  -0.28634

