data_crystal

_audit_creation_method 'AiiDA-DDEC plugin'

_cell_length_a        44.10662
_cell_length_b        45.14224
_cell_length_c         7.98479

_cell_angle_alpha     117.12923
_cell_angle_beta     87.55920
_cell_angle_gamma     119.48585

_symmetry_space_group_name_Hall 'P 1'
_symmetry_space_group_name_H-M  'P 1'

loop_
_symmetry_equiv_pos_as_xyz
 'x,y,z'

loop_
_atom_site_label
_atom_site_type_symbol
_atom_site_fract_x
_atom_site_fract_y
_atom_site_fract_z
_atom_site_charge
H          H       0.19367   0.47863   0.22518   0.12621
H          H       0.53162   0.70770   0.02302   0.11784
H          H       0.27459   0.80411   0.34488   0.12414
H          H       0.16593   0.41317   0.19674   0.10440
H          H       0.59452   0.74687   0.00460   0.10301
H          H       0.24149   0.83650   0.35955   0.10354
H          H       0.26915   0.42176   0.36698   0.10140
H          H       0.58591   0.86174   0.53394   0.11049
H          H       0.14947   0.73177   0.30256   0.10397
H          H       0.29271   0.48545   0.39194   0.09514
H          H       0.52194   0.82530   0.52521   0.10060
H          H       0.18726   0.70610   0.29498   0.09564
H          H       0.15689   0.37455   0.43802   0.10867
H          H       0.62858   0.78722   0.30258   0.10335
H          H       0.21489   0.85862   0.59329   0.10290
H          H       0.12204   0.31055   0.41725   0.10529
H          H       0.69197   0.81714   0.28430   0.11119
H          H       0.18830   0.89533   0.59131   0.10731
H          H       0.19103   0.28559   0.97991   0.10295
H          H       0.70253   0.90186   0.17159   0.10573
H          H       0.10303   0.79756   0.02619   0.10337
H          H       0.08058   0.25321   0.10077   0.10370
H          H       0.73723   0.81934   0.98929   0.10681
H          H       0.17671   0.92842   0.32064   0.11004
H          H       0.04658   0.18854   0.08614   0.12085
H          H       0.80259   0.84677   0.00229   0.12320
H          H       0.14916   0.96397   0.30373   0.12787
H          H       0.14254   0.18320   0.31456   0.09314
H          H       0.81810   0.97277   0.52453   0.09900
H          H       0.05271   0.86599   0.30303   0.09319
H          H       0.17954   0.24566   0.32252   0.10389
H          H       0.75471   0.94543   0.53532   0.10539
H          H       0.07383   0.82486   0.30828   0.10465
H          H       0.29515   0.51737   0.05328   0.26319
H          H       0.46119   0.73294   0.83755   0.26887
H          H       0.21969   0.67964   0.89583   0.25940
H          H       0.35318   0.61652   0.49969   0.29813
H          H       0.39107   0.74728   0.43517   0.30394
H          H       0.25198   0.65304   0.46025   0.29621
H          H       0.26831   0.58980   0.49741   0.12410
H          H       0.41959   0.69289   0.46141   0.12274
H          H       0.30736   0.73304   0.43309   0.12761
H          H       0.09587   0.11639   0.85336   0.25949
H          H       0.85540   0.94658   0.89628   0.25647
H          H       0.03944   0.88998   0.00400   0.26305
H          H       0.02065   0.09096   0.39516   0.12840
H          H       0.92048   0.94622   0.46319   0.12435
H          H       0.07454   0.99342   0.45128   0.12100
H          H       0.08198   0.06878   0.40531   0.29850
H          H       0.94045   0.02365   0.41762   0.30321
H          H       0.99151   0.93756   0.47347   0.29432
H          H       0.27506   0.37836   0.39021   0.13006
H          H       0.64050   0.92070   0.77021   0.12955
H          H       0.09354   0.72642   0.35269   0.12790
H          H       0.24580   0.33728   0.03777   0.12911
H          H       0.65949   0.90523   0.35041   0.12920
H          H       0.10149   0.74896   0.09887   0.13052
H          H       0.25417   0.38327   0.08069   0.12518
H          H       0.61554   0.86403   0.28842   0.12470
H          H       0.13602   0.73867   0.05581   0.12571
H          H       0.21272   0.49818   0.69101   0.13148
H          H       0.53186   0.73545   0.52883   0.12768
H          H       0.26246   0.81424   0.80431   0.12322
H          H       0.18939   0.43403   0.67033   0.11319
H          H       0.59662   0.77196   0.53236   0.10938
H          H       0.22466   0.84111   0.80598   0.10304
H          H       0.23892   0.39227   0.85757   0.09970
H          H       0.57150   0.82656   0.97286   0.10708
H          H       0.17200   0.73859   0.80586   0.10548
H          H       0.26667   0.45693   0.89003   0.08975
H          H       0.50984   0.78828   0.99379   0.10073
H          H       0.20481   0.70684   0.79073   0.09466
H          H       0.13031   0.35280   0.98667   0.10464
H          H       0.62132   0.75811   0.76445   0.10699
H          H       0.23464   0.86341   0.16995   0.10702
H          H       0.09528   0.28812   0.96134   0.10677
H          H       0.68512   0.78956   0.75182   0.10823
H          H       0.20714   0.89941   0.16672   0.10623
H          H       0.21902   0.31243   0.48956   0.10060
H          H       0.71465   0.92811   0.75527   0.10599
H          H       0.08397   0.79822   0.49932   0.10529
H          H       0.10672   0.28096   0.57613   0.10280
H          H       0.74758   0.84393   0.49630   0.11120
H          H       0.16080   0.92622   0.79386   0.11432
H          H       0.06863   0.21689   0.56366   0.12349
H          H       0.81181   0.87133   0.48121   0.12487
H          H       0.14043   0.96801   0.78400   0.12764
H          H       0.12085   0.15954   0.80149   0.09663
H          H       0.81087   0.94353   0.97553   0.09816
H          H       0.06330   0.85558   0.83709   0.09798
H          H       0.15387   0.22269   0.81270   0.10121
H          H       0.74675   0.91641   0.96257   0.10375
H          H       0.09013   0.82030   0.85715   0.10175
H          H       0.31663   0.54858   0.55642   0.26977
H          H       0.46807   0.77403   0.38896   0.27027
H          H       0.21425   0.68822   0.39261   0.25764
H          H       0.34015   0.58777   0.01454   0.29685
H          H       0.38945   0.71741   0.92373   0.29551
H          H       0.24900   0.63694   0.97661   0.29858
H          H       0.25816   0.57159   0.03533   0.12298
H          H       0.41284   0.66293   0.98629   0.11911
H          H       0.31013   0.71298   0.93356   0.12044
H          H       0.11063   0.13769   0.34650   0.26649
H          H       0.86258   0.97806   0.42810   0.25668
H          H       0.03301   0.90596   0.49479   0.26571
H          H       0.00758   0.06455   0.90954   0.12367
H          H       0.91528   0.92014   0.98462   0.12181
H          H       0.07293   0.97781   0.97287   0.12129
H          H       0.07327   0.04820   0.91314   0.29975
H          H       0.93033   0.99314   0.91811   0.29491
H          H       0.99092   0.91575   0.98443   0.29762
H          H       0.24103   0.34411   0.84123   0.12736
H          H       0.62640   0.88998   0.16057   0.12596
H          H       0.10793   0.72885   0.86094   0.12862
H          H       0.27441   0.36809   0.57981   0.12913
H          H       0.67193   0.92998   0.94662   0.13266
H          H       0.07907   0.74865   0.55757   0.12817
H          H       0.28012   0.41334   0.62877   0.13219
H          H       0.62695   0.88956   0.87065   0.13039
H          H       0.11651   0.74485   0.58753   0.13115
C          C       0.29580   0.65464   0.46994   0.31047
C          C       0.35153   0.65568   0.47492   0.30752
C          C       0.34926   0.70653   0.44942   0.30818
C          C       0.31500   0.63781   0.48275  -0.22350
C          C       0.36919   0.69016   0.45901  -0.22491
C          C       0.31251   0.68910   0.45425  -0.22356
C          C       0.20320   0.45924   0.14442  -0.08574
C          C       0.54082   0.73382   0.01207  -0.09065
C          C       0.25174   0.78996   0.22934  -0.07877
C          C       0.18771   0.42237   0.12669  -0.12962
C          C       0.57583   0.75584   0.00182  -0.14833
C          C       0.23318   0.80785   0.23585  -0.13263
C          C       0.19993   0.39694   0.02299   0.08080
C          C       0.58795   0.78996   0.99019   0.07647
C          C       0.20345   0.78938   0.08715   0.07547
C          C       0.25679   0.43829   0.44125  -0.14164
C          C       0.57435   0.83395   0.53144  -0.13730
C          C       0.17381   0.74995   0.41551  -0.13650
C          C       0.27050   0.47497   0.45754  -0.12321
C          C       0.53782   0.81293   0.52468  -0.12734
C          C       0.19542   0.73533   0.41283  -0.12926
C          C       0.23231   0.47275   0.06250  -0.04975
C          C       0.51629   0.74475   0.00620  -0.03081
C          C       0.24122   0.75278   0.07188  -0.03595
C          C       0.20837   0.38168   0.48210   0.00075
C          C       0.63490   0.84037   0.53596   0.00115
C          C       0.16501   0.80748   0.54981   0.00718
C          C       0.17083   0.36147   0.45445  -0.11633
C          C       0.64764   0.81815   0.40317  -0.12062
C          C       0.18613   0.84557   0.57585  -0.12195
C          C       0.15100   0.32512   0.44201  -0.13457
C          C       0.68331   0.83485   0.39353  -0.13948
C          C       0.17128   0.86636   0.57549  -0.13510
C          C       0.16775   0.30647   0.45603   0.07468
C          C       0.70807   0.87502   0.51885   0.06671
C          C       0.13408   0.84953   0.54617   0.06913
C          C       0.17729   0.29990   0.97755  -0.18901
C          C       0.68443   0.87033   0.07758  -0.19455
C          C       0.13205   0.81187   0.05273  -0.19593
C          C       0.19780   0.33643   0.98788   0.13013
C          C       0.64844   0.85317   0.08841   0.13558
C          C       0.14707   0.79074   0.05145   0.13219
C          C       0.14615   0.26846   0.45026   0.07161
C          C       0.74620   0.89224   0.51225   0.07294
C          C       0.11917   0.87264   0.54919   0.06856
C          C       0.11436   0.25935   0.51619  -0.12919
C          C       0.76286   0.87166   0.49725  -0.12792
C          C       0.13749   0.91323   0.68412  -0.12860
C          C       0.07027   0.19670   0.02770  -0.06811
C          C       0.78976   0.86131   0.99095  -0.08662
C          C       0.13675   0.93257   0.20517  -0.08934
C          C       0.08140   0.16987   0.94770  -0.02850
C          C       0.81118   0.89624   0.98594  -0.05091
C          C       0.10438   0.91235   0.07147  -0.04377
C          C       0.13412   0.20424   0.37380  -0.13009
C          C       0.80291   0.94409   0.51418  -0.12528
C          C       0.07593   0.87924   0.41422  -0.12705
C          C       0.15561   0.24006   0.37905  -0.13430
C          C       0.76697   0.92892   0.52299  -0.13889
C          C       0.08788   0.85595   0.41642  -0.14017
C          C       0.24568   0.51092   0.06998   0.42943
C          C       0.47873   0.71904   0.01137   0.42002
C          C       0.26264   0.73575   0.07668   0.42685
C          C       0.29670   0.60301   0.49975   0.06420
C          C       0.40640   0.70746   0.45571   0.07918
C          C       0.29312   0.70634   0.44233   0.09059
C          C       0.05924   0.13270   0.95398   0.42327
C          C       0.84981   0.90917   0.99240   0.41948
C          C       0.09064   0.93593   0.06023   0.43103
C          C       0.03716   0.07961   0.39985   0.07458
C          C       0.93111   0.97218   0.44924   0.07811
C          C       0.04640   0.97845   0.45447   0.07132
C          C       0.03458   0.00618   0.93409   0.30167
C          C       0.97598   0.99894   0.92633   0.31181
C          C       0.98445   0.95229   0.95925   0.29966
C          C       0.02133   0.04476   0.41601  -0.22837
C          C       0.96799   0.99177   0.43996  -0.22123
C          C       0.02533   0.99401   0.44296  -0.22663
C          C       0.23684   0.35134   0.98835  -0.42070
C          C       0.63674   0.87943   0.22937  -0.42545
C          C       0.12192   0.74951   0.01461  -0.42844
C          C       0.29020   0.63354   0.98363   0.31072
C          C       0.34274   0.62863   0.98691   0.29829
C          C       0.34620   0.68119   0.95348   0.30839
C          C       0.30648   0.61419  -0.00105  -0.22712
C          C       0.36321   0.66229   0.96641  -0.22981
C          C       0.30972   0.66702   0.96092  -0.22642
C          C       0.22490   0.48115   0.62040  -0.09341
C          C       0.54399   0.76287   0.52714  -0.08089
C          C       0.23765   0.79669   0.69524  -0.07951
C          C       0.21158   0.44485   0.60542  -0.13274
C          C       0.58008   0.78336   0.52875  -0.13520
C          C       0.21650   0.81144   0.69494  -0.13694
C          C       0.22640   0.42176   0.50961   0.07544
C          C       0.59625   0.81966   0.53427   0.07943
C          C       0.18426   0.78864   0.55487   0.07924
C          C       0.22936   0.41109   0.94376  -0.13534
C          C       0.56334   0.80102   0.98723  -0.12852
C          C       0.19354   0.75246   0.92797  -0.13087
C          C       0.24529   0.44823   0.96330  -0.13275
C          C       0.52815   0.77885  -0.00404  -0.11084
C          C       0.21216   0.73446   0.92043  -0.13053
C          C       0.25435   0.49658   0.54455  -0.03938
C          C       0.52226   0.77729   0.52416  -0.03631
C          C       0.22775   0.75857   0.55205  -0.04136
C          C       0.18108   0.35698  -0.00248   0.00128
C          C       0.62535   0.81182   0.97675   0.00099
C          C       0.18479   0.80943   0.09267   0.00085
C          C       0.14392   0.33829   0.98788  -0.13018
C          C       0.63926   0.78976   0.85455  -0.13479
C          C       0.20562   0.84901   0.13869  -0.12339
C          C       0.12402   0.30171   0.97383  -0.13614
C          C       0.67503   0.80727   0.84718  -0.14908
C          C       0.19018   0.86938   0.13799  -0.14211
C          C       0.14054   0.28168   0.97078   0.07326
C          C       0.69856   0.84810   0.96325   0.06993
C          C       0.15269   0.85087   0.09263   0.07064
C          C       0.20507   0.32583   0.47638  -0.20863
C          C       0.69555   0.89721   0.65262  -0.21027
C          C       0.11283   0.81135   0.51770  -0.20340
C          C       0.22569   0.36276   0.49011   0.12591
C          C       0.65963   0.88078   0.66534   0.12984
C          C       0.12745   0.79014   0.52141   0.12219
C          C       0.12022   0.24325   0.96058   0.07066
C          C       0.73727   0.86566   0.97231   0.07055
C          C       0.13568   0.87174   0.08833   0.07322
C          C       0.08931   0.23260   0.03388  -0.12984
C          C       0.75347   0.84623   0.98326  -0.13403
C          C       0.15204   0.91254   0.21336  -0.12772
C          C       0.09299   0.22375   0.51079  -0.08150
C          C       0.79862   0.88680   0.48992  -0.09335
C          C       0.12603   0.93666   0.68059  -0.08493
C          C       0.10242   0.19548   0.44022  -0.03757
C          C       0.81917   0.92308   0.49647  -0.04637
C          C       0.09516   0.91991   0.54487  -0.04357
C          C       0.11188   0.17991   0.87119  -0.12420
C          C       0.79530   0.91613   0.97789  -0.12385
C          C       0.08755   0.87158   0.94800  -0.12800
C          C       0.13090   0.21592   0.87747  -0.13703
C          C       0.75888   0.90116   0.97270  -0.13314
C          C       0.10291   0.85163   0.95756  -0.13763
C          C       0.26409   0.53346   0.54650   0.42328
C          C       0.48429   0.75407   0.53172   0.44365
C          C       0.25376   0.74676   0.55931   0.42663
C          C       0.28557   0.58050   0.02293   0.06391
C          C       0.40028   0.67656   0.96133   0.06858
C          C       0.29359   0.68697   0.94673   0.10228
C          C       0.07714   0.15865   0.44618   0.42787
C          C       0.85746   0.93608   0.48844   0.41509
C          C       0.08578   0.94700   0.53778   0.42914
C          C       0.02559   0.05460   0.90778   0.06547
C          C       0.92497   0.94485   0.96068   0.07308
C          C       0.04478   0.95987   0.96760   0.06296
C          C       0.04118   0.02843   0.42747   0.29988
C          C       0.98461   0.02578   0.42135   0.30586
C          C       0.98862   0.97617   0.45000   0.30729
C          C       0.01241   0.01981   0.92092  -0.22445
C          C       0.96165   0.96545   0.94881  -0.21879
C          C       0.02103   0.97218   0.95161  -0.22858
C          C       0.26585   0.38167   0.52434  -0.42261
C          C       0.64912   0.90653   0.82132  -0.42644
C          C       0.10291   0.75044   0.50395  -0.42446
N          N       0.28045   0.52867   0.04867  -0.23650
N          N       0.45398   0.72189   0.93001  -0.24893
N          N       0.24676   0.69575   0.94293  -0.26374
N          N       0.31476   0.58812   0.51645  -0.16253
N          N       0.42353   0.73999   0.44700  -0.18016
N          N       0.25885   0.68911   0.43937  -0.18036
N          N       0.07212   0.10792   0.89216  -0.24625
N          N       0.86904   0.93909   0.95144  -0.23356
N          N       0.05359   0.91532  -0.00025  -0.25128
N          N       0.07096   0.09703   0.39255  -0.18160
N          N       0.91112   0.98566   0.44131  -0.17293
N          N       0.03088   0.94681   0.47064  -0.16255
N          N       0.29851   0.55420   0.52665  -0.25213
N          N       0.45973   0.75698   0.45127  -0.23167
N          N       0.24122   0.70714   0.43452  -0.25873
N          N       0.29993   0.56148   0.03021  -0.17790
N          N       0.41806   0.70588   0.92806  -0.15141
N          N       0.25972   0.67360   0.94780  -0.18077
N          N       0.08654   0.13080   0.38028  -0.24836
N          N       0.87590   0.96702   0.45371  -0.23170
N          N       0.04913   0.93022   0.48344  -0.25152
N          N       0.05893   0.07376   0.89760  -0.16784
N          N       0.90429   0.95686   0.94260  -0.14044
N          N       0.03198   0.92805   0.98066  -0.17181
O          O       0.22668   0.52472   0.08871  -0.44402
O          O       0.47138   0.69817   0.08589  -0.47393
O          O       0.29197   0.75545   0.18994  -0.44020
O          O       0.03159   0.12524   0.01477  -0.44253
O          O       0.86310   0.89408   0.03385  -0.44702
O          O       0.11062   0.97037   0.09918  -0.44164
O          O       0.25581   0.61945   0.99174  -0.39199
O          O       0.35860   0.61002   0.99228  -0.40931
O          O       0.36434   0.71298   0.93359  -0.40295
O          O       0.06918   0.02548   0.93073  -0.39996
O          O       0.95535   0.01181   0.90925  -0.39515
O          O       0.97049   0.92004   0.97581  -0.40014
O          O       0.24226   0.54350   0.55768  -0.43393
O          O       0.47592   0.73339   0.60891  -0.48212
O          O       0.28404   0.77045   0.66609  -0.43607
O          O       0.05000   0.15398   0.50868  -0.44452
O          O       0.87100   0.91967   0.51436  -0.44276
O          O       0.10866   0.98061   0.57370  -0.44075
O          O       0.26118   0.63711   0.47403  -0.39157
O          O       0.37028   0.64015   0.48256  -0.40647
O          O       0.36496   0.73898   0.43445  -0.38719
O          O       0.07603   0.04574   0.42462  -0.40367
O          O       0.96561   0.04077   0.40826  -0.39456
O          O       0.97233   0.94384   0.46567  -0.39835

