data_crystal

_audit_creation_method 'AiiDA-DDEC plugin'

_cell_length_a        29.59596
_cell_length_b        29.53673
_cell_length_c         8.08262

_cell_angle_alpha     117.22051
_cell_angle_beta     87.73969
_cell_angle_gamma     59.93764

_symmetry_space_group_name_Hall 'P 1'
_symmetry_space_group_name_H-M  'P 1'

loop_
_symmetry_equiv_pos_as_xyz
 'x,y,z'

loop_
_atom_site_label
_atom_site_type_symbol
_atom_site_fract_x
_atom_site_fract_y
_atom_site_fract_z
_atom_site_charge
H          H       0.24870   0.77412   0.00226   0.06689
H          H       0.45800   0.27995   0.97120   0.11157
H          H       0.60234   0.13719   0.98821   0.10869
H          H       0.60226   0.28226   0.98210   0.10555
H          H       0.52309   0.36403   0.99270   0.05607
H          H       0.45863   0.19650   0.95813   0.06853
H          H       0.68205   0.13905   0.00529   0.06705
H          H       0.49360   0.43322   0.95987   0.11022
H          H       0.29482   0.53843   0.02193   0.13246
H          H       0.34737   0.43561  -0.00117   0.11997
H          H       0.48004   0.61410  -0.00400   0.10593
H          H       0.42285   0.71177   0.00389   0.11410
H          H       0.28594   0.69597   0.01515   0.13914
H          H       0.53678   0.49399   0.37331   0.10908
H          H       0.50626   0.49964   0.10149   0.12271
H          H       0.50521   0.55852   0.09256   0.12288
H          H       0.36835   0.95467   0.95197   0.11380
H          H       0.26395   0.15733   0.00531   0.13509
H          H       0.21885   0.10193   0.97656   0.12761
H          H       0.52881   0.97126   0.98575   0.11167
H          H       0.56713   0.02997  -0.00087   0.12376
H          H       0.41020   0.17145   0.03069   0.13917
H          H       0.01899   0.04004   0.95503   0.11021
H          H       0.84284   0.20611   0.96864   0.11171
H          H       0.74711   0.24514   0.96660   0.11742
H          H       0.76321   0.09543   0.99246   0.13772
H          H       0.97569   0.10250   0.35285   0.11200
H          H       0.96155   0.13522   0.10320   0.11822
H          H       0.90191   0.19057   0.08711   0.12141
H          H       0.17364  -0.00109   0.98826   0.10761
H          H       0.16959   0.85578   0.99508   0.11275
H          H       0.31477   0.85578   0.01412   0.10628
H          H       0.31528   0.93924   0.03990   0.06172
H          H       0.09200   0.00331   0.99009   0.05831
H          H       0.43918   0.92482   0.39523   0.12183
H          H       0.42193   0.95399   0.10213   0.12092
H          H       0.47974   0.95753   0.10340   0.12472
H          H       0.92110   0.94878   0.00557   0.13673
H          H       0.02057   0.89954  -0.00302   0.12336
H          H       0.25120   0.77536   0.50277   0.06687
H          H       0.45854   0.28408   0.47237   0.11339
H          H       0.60060   0.14009   0.49318   0.10938
H          H       0.60521   0.28143   0.47648   0.10495
H          H       0.52748   0.36359   0.48224   0.05602
H          H       0.45535   0.20469   0.47413   0.06741
H          H       0.68191   0.14011   0.50912   0.06745
H          H       0.49701   0.43524   0.45907   0.10901
H          H       0.29816   0.54066   0.52103   0.13249
H          H       0.35072   0.43811   0.49965   0.12084
H          H       0.48235   0.61767   0.49985   0.10581
H          H       0.42447   0.71599   0.51125   0.11370
H          H       0.28834   0.69874   0.51772   0.13849
H          H       0.53380   0.48436   0.86706   0.10980
H          H       0.51109   0.49904   0.58930   0.12535
H          H       0.50455   0.56475   0.61454   0.12137
H          H       0.35653   0.97468   0.53368   0.11183
H          H       0.26657   0.15213   0.44784   0.13248
H          H       0.21907   0.10105   0.44566   0.12365
H          H       0.51677   0.99019   0.56216   0.11014
H          H       0.55828   0.04404   0.55115   0.12471
H          H       0.41255   0.16779   0.48009   0.13576
H          H       0.01768   0.04369   0.47740   0.10636
H          H       0.84118   0.20992   0.48509   0.10754
H          H       0.74630   0.24775   0.47958   0.11709
H          H       0.76472   0.09441   0.48598   0.13833
H          H       0.95982   0.12180   0.86525   0.10774
H          H       0.95428   0.14592   0.61809   0.11156
H          H       0.91145   0.17822   0.50023   0.12842
H          H       0.17124   0.00215   0.49414   0.10610
H          H       0.17035   0.85758   0.50229   0.11330
H          H       0.31546   0.85809   0.50636   0.10545
H          H       0.31858   0.93502   0.49978   0.06178
H          H       0.09200   0.00295   0.48512   0.05909
H          H       0.47684   0.90959   0.87290   0.10932
H          H       0.45081   0.95655   0.62342   0.11117
H          H       0.49654   0.92969   0.39786   0.12003
H          H       0.92181   0.94787   0.49922   0.13709
H          H       0.02051   0.89970   0.49863   0.12373
C          C       0.36735   0.45790  -0.00291  -0.14641
C          C       0.41544   0.59981   0.00432   0.06701
C          C       0.35960   0.62570   0.01198   0.17833
C          C       0.43749   0.63193   0.00116  -0.18719
C          C       0.40556   0.68704   0.00625  -0.15528
C          C       0.35073   0.71169   0.00904   0.20711
C          C       0.32826   0.67945   0.01163  -0.27500
C          C       0.50077   0.52029   0.01423  -0.28673
C          C       0.19289   0.95762   0.99539  -0.14885
C          C       0.16498   0.93069   0.99299   0.05293
C          C       0.19188   0.87607  -0.00398  -0.15374
C          C       0.24572   0.84925   0.00384   0.06857
C          C       0.27294   0.87735   0.00806  -0.13049
C          C       0.24716   0.93098   0.00249   0.06175
C          C       0.27727   0.95786   0.00346   0.08511
C          C       0.10868   0.96002   0.98654   0.06612
C          C       0.28944   0.02634   0.97115   0.20120
C          C       0.34488  -0.00025   0.96863  -0.28024
C          C       0.36948   0.03117   0.99243   0.07651
C          C       0.33888   0.08867   0.00642   0.16129
C          C       0.28547   0.11371  -0.00123  -0.18244
C          C       0.26065   0.08292   0.98203  -0.15593
C          C       0.44740   0.03838   0.00516   0.05861
C          C       0.41548   0.09564   0.01807   0.17742
C          C       0.50262   0.01509  -0.00411  -0.18488
C          C       0.52458   0.04789   0.00299  -0.15036
C          C       0.49300   0.10422   0.01277   0.20071
C          C       0.43727   0.12791   0.02203  -0.27581
C          C       0.45215   0.95407   0.01969  -0.27645
C          C       0.02621   0.96677   0.97884   0.20018
C          C       0.99712   0.02146   0.97529  -0.27260
C          C       0.94128   0.05092   0.99032   0.07600
C          C       0.91502   0.02248  -0.00410   0.16845
C          C       0.94328   0.96824  -0.00379  -0.19184
C          C       0.99840   0.94078   0.99008  -0.15216
C          C       0.85676   0.13034   0.99088   0.06236
C          C       0.83241   0.09978   0.99281   0.18060
C          C       0.82508   0.18276   0.97962  -0.19745
C          C       0.77105   0.20496   0.97795  -0.15814
C          C       0.27327   0.79253   0.00596   0.06926
C          C       0.74677   0.17515   0.98378   0.20372
C          C       0.50025   0.25860   0.97356  -0.12987
C          C       0.77922   0.12108   0.98857  -0.26334
C          C       0.52747   0.20462   0.97760   0.06318
C          C       0.93471   0.14046   0.01391  -0.27590
C          C       0.58204   0.17871   0.98230  -0.14409
C          C       0.60900   0.20641   0.98302   0.05415
C          C       0.58076   0.26118   0.98138  -0.15837
C          C       0.52667   0.28740   0.97637   0.06858
C          C       0.49866   0.34499   0.97992   0.07593
C          C       0.49878   0.17662   0.98105   0.07818
C          C       0.66529   0.17898   0.98969   0.06924
C          C       0.42332   0.42834   0.98270   0.20775
C          C       0.44971   0.45683   0.97895  -0.27386
C          C       0.42075   0.51433  -0.00287   0.06886
C          C       0.36443   0.54277   0.01118   0.17269
C          C       0.33820   0.51483   0.01124  -0.18456
C          C       0.37060   0.46039   0.49701  -0.14723
C          C       0.41816   0.60278   0.50545   0.06902
C          C       0.36236   0.62843   0.51305   0.17837
C          C       0.43991   0.63528   0.50363  -0.18998
C          C       0.40752   0.69071   0.51037  -0.15540
C          C       0.35281   0.71491   0.51200   0.20665
C          C       0.33071   0.68226   0.51360  -0.27311
C          C       0.50338   0.52486   0.51842  -0.28674
C          C       0.19143   0.96058   0.49991  -0.14864
C          C       0.16436   0.93288   0.49853   0.05313
C          C       0.19216   0.87820   0.50128  -0.15512
C          C       0.24638   0.85157   0.50545   0.06924
C          C       0.27314   0.87977   0.50485  -0.12935
C          C       0.24618   0.93397   0.50222   0.06241
C          C       0.27615   0.96051   0.49765   0.08138
C          C       0.10819   0.96128   0.49104   0.06517
C          C       0.28467   0.03397   0.48619   0.19644
C          C       0.33760   0.01173   0.50645  -0.28501
C          C       0.36517   0.03821   0.50132   0.07668
C          C       0.33773   0.09039   0.48492   0.16179
C          C       0.28555   0.11313   0.46636  -0.18793
C          C       0.25927   0.08476   0.46484  -0.15290
C          C       0.44270   0.04594   0.51658   0.06091
C          C       0.41387   0.09819   0.50086   0.17252
C          C       0.49480   0.02757   0.53719  -0.18860
C          C       0.51804   0.05830   0.53373  -0.15365
C          C       0.49000   0.10899   0.51223   0.19853
C          C       0.43650   0.12914   0.49858  -0.27861
C          C       0.45306   0.95336   0.48199  -0.26863
C          C       0.02573   0.96813   0.48739   0.20077
C          C       0.99659   0.02321   0.48628  -0.27431
C          C       0.94168   0.05103   0.49120   0.07456
C          C       0.91575   0.02197   0.49278   0.16959
C          C       0.94376   0.96795   0.49431  -0.19468
C          C       0.99848   0.94109   0.49247  -0.15123
C          C       0.85756   0.13060   0.49059   0.06385
C          C       0.83345   0.09950   0.48931   0.18201
C          C       0.82477   0.18459   0.48800  -0.19447
C          C       0.77087   0.20659   0.48568  -0.15806
C          C       0.27488   0.79482   0.50758   0.06901
C          C       0.74717   0.17575   0.48596   0.20432
C          C       0.50081   0.26177   0.47419  -0.13094
C          C       0.78012   0.12099   0.48648  -0.26292
C          C       0.52688   0.20803   0.47952   0.06243
C          C       0.93973   0.13481   0.49164  -0.27969
C          C       0.58146   0.18106   0.48435  -0.14367
C          C       0.60956   0.20743   0.48306   0.05304
C          C       0.58263   0.26168   0.47836  -0.15837
C          C       0.52850   0.28910   0.47429   0.06468
C          C       0.50176   0.34630   0.47573   0.07579
C          C       0.49680   0.18168   0.48571   0.07916
C          C       0.66564   0.17964   0.49153   0.06982
C          C       0.42656   0.43081   0.48218   0.20791
C          C       0.45314   0.45906   0.47753  -0.27623
C          C       0.42418   0.51666   0.49616   0.07020
C          C       0.36780   0.54504   0.51044   0.16835
C          C       0.34151   0.51715   0.51049  -0.18047
N          N       0.69268   0.20123   0.97920  -0.29830
N          N       0.44904   0.37197   0.97330  -0.29360
N          N       0.44538   0.54492   0.00265  -0.00423
N          N       0.32331   0.76641   0.00984  -0.29776
N          N       0.25993   0.00084   0.96637  -0.30316
N          N       0.42276   0.00846   0.00643  -0.02875
N          N       0.52015   0.13133   0.00872  -0.30222
N          N       0.08092   0.93685   0.97859  -0.29020
N          N       0.90980   0.10820   0.00486  -0.00476
N          N       0.69323   0.20167   0.48084  -0.29815
N          N       0.45171   0.37472   0.47396  -0.29504
N          N       0.44850   0.54769   0.50256  -0.00641
N          N       0.32484   0.76965   0.51278  -0.29660
N          N       0.25469   0.00943   0.48881  -0.30429
N          N       0.41905   0.01456   0.50983  -0.03013
N          N       0.51813   0.13491   0.50594  -0.30209
N          N       0.08010   0.93893   0.49039  -0.28918
N          N       0.91151   0.10680   0.49666  -0.00321
O          O       0.33308   0.59918   0.02532  -0.18229
O          O       0.36042   0.12241   0.02712  -0.17984
O          O       0.86073   0.04696   0.00114  -0.18077
O          O       0.33617   0.60162   0.52588  -0.18141
O          O       0.36171   0.12013   0.48176  -0.17649
O          O       0.86221   0.04535   0.49055  -0.18262

