data_crystal

_audit_creation_method 'AiiDA-DDEC plugin'

_cell_length_a        28.53671
_cell_length_b        31.36402
_cell_length_c         8.23620

_cell_angle_alpha     66.94840
_cell_angle_beta     88.40949
_cell_angle_gamma     61.37721

_symmetry_space_group_name_Hall 'P 1'
_symmetry_space_group_name_H-M  'P 1'

loop_
_symmetry_equiv_pos_as_xyz
 'x,y,z'

loop_
_atom_site_label
_atom_site_type_symbol
_atom_site_fract_x
_atom_site_fract_y
_atom_site_fract_z
_atom_site_charge
H          H       0.02751   0.89505   0.87261   0.05405
H          H       0.46991   0.23414   0.05732   0.05832
H          H       0.40564   0.09515   0.86166   0.06033
H          H       0.62547   0.06295   0.86317   0.06766
H          H       0.70582   0.99676   0.98334   0.13703
H          H       0.81527   0.07353   0.06122   0.10873
H          H       0.71665   0.12078   0.05666   0.11756
H          H       0.85448   0.84888   0.97033   0.13508
H          H       0.95404   0.79616   0.96508   0.12563
H          H       0.97762   0.91164   0.05068   0.10334
H          H       0.44656   0.30940   0.96676   0.11171
H          H       0.26067   0.40136   0.08242   0.13042
H          H       0.29349   0.31716   0.03451   0.11939
H          H       0.46711   0.45941   0.96325   0.10550
H          H       0.42379   0.54774   0.97250   0.08979
H          H       0.27993   0.53758   0.08283   0.13046
H          H       0.37277   0.04318   0.05882   0.13026
H          H       0.46250   0.88821   0.90175   0.11282
H          H       0.50961   0.93702   0.90528   0.12014
H          H       0.21418   0.04632   0.05359   0.13087
H          H       0.15101   0.01826   0.97695   0.12584
H          H       0.28712   0.89183   0.89646   0.11567
H          H       0.47123   0.37611   0.36745   0.10763
H          H       0.49658   0.32251   0.09767   0.12626
H          H       0.50325   0.37729   0.08130   0.11410
H          H       0.91546   0.02405   0.48138   0.10908
H          H       0.94514   0.95743   0.19740   0.11306
H          H       0.88998   0.02330   0.13389   0.13024
H          H       0.39082   0.85994   0.35209   0.10957
H          H       0.36899   0.83530   0.05973   0.11936
H          H       0.43287   0.83198   0.07182   0.11792
H          H       0.28216   0.67243   0.63096   0.12351
H          H       0.24292   0.68129   0.37858   0.19682
H          H       0.24551   0.85708   0.06136   0.05232
H          H       0.22815   0.67563   0.10099   0.11687
H          H       0.33003   0.58791   0.03261   0.09675
H          H       0.54006   0.24803   0.86189   0.08386
H          H       0.56298   0.23966   0.46507   0.10767
H          H       0.59905   0.20397   0.04368   0.12139
H          H       0.60902   0.95319   0.55775   0.11190
H          H       0.56296   0.98203   0.15906   0.10705
H          H       0.62265   0.98858   0.13495   0.09492
H          H       0.28266   0.80696   0.38517   0.10283
H          H       0.34204   0.71133   0.07563   0.09870
H          H       0.33991   0.77498   0.97412   0.10300
H          H       0.08770   0.77391   0.29412   0.10512
H          H       0.07796   0.77623   0.80676   0.10531
H          H       0.07418   0.72417   0.98900   0.11533
H          H       0.04901   0.92444   0.07639   0.08371
H          H       0.05503   0.97926   0.40041   0.11772
H          H       0.10521   0.93544   0.06997   0.11431
H          H       0.39021   0.10276   0.14436   0.11358
H          H       0.34224   0.17768   0.32462   0.08767
H          H       0.33110   0.16632   0.10288   0.11227
H          H       0.03095   0.89214   0.37925   0.05633
H          H       0.44783   0.26175   0.38042   0.05785
H          H       0.41597   0.07279   0.57671   0.06442
H          H       0.62189   0.07176   0.33320   0.06795
H          H       0.69998   0.00598   0.46420   0.14040
H          H       0.80748   0.08486   0.53860   0.10867
H          H       0.70853   0.13201   0.52831   0.11785
H          H       0.84684   0.86212   0.44228   0.13551
H          H       0.94757   0.80404   0.45981   0.12326
H          H       0.97516   0.91636   0.55338   0.10452
H          H       0.44202   0.30731   0.49948   0.10559
H          H       0.25208   0.39849   0.58244   0.12830
H          H       0.29144   0.30976   0.56518   0.12037
H          H       0.44969   0.46988   0.43902   0.10823
H          H       0.40925   0.55079   0.49670   0.10357
H          H       0.27323   0.52958   0.64279   0.12938
H          H       0.36600   0.04633   0.54138   0.13637
H          H       0.46601   0.88763   0.40785   0.11400
H          H       0.50672   0.94348   0.38902   0.12332
H          H       0.21311   0.03871   0.54902   0.13264
H          H       0.15543   0.00367   0.48910   0.12743
H          H       0.29761   0.87714   0.42904   0.10887
H          H       0.48387   0.37566   0.88032   0.11005
H          H       0.48652   0.32988   0.59919   0.10620
H          H       0.48835   0.38980   0.54165   0.11774
H          H       0.92758   0.00639   0.96962   0.10752
H          H       0.94111   0.96337   0.68545   0.11560
H          H       0.88383   0.02292   0.67273   0.12389
H          H       0.39087   0.86200   0.85679   0.10552
H          H       0.38076   0.82811   0.57379   0.11506
H          H       0.44024   0.83337   0.54682   0.12318
H          H       0.28021   0.69138   0.03121   0.11109
H          H       0.25406   0.66581   0.82733   0.13091
H          H       0.25318   0.84055   0.59157   0.05170
H          H       0.22515   0.66137   0.65291   0.13148
H          H       0.32325   0.57932   0.60801   0.09352
H          H       0.52602   0.21425   0.61584   0.08754
H          H       0.59676   0.18815   0.85882   0.10453
H          H       0.59404   0.16853   0.60373   0.09639
H          H       0.60807   0.95572   0.02411   0.10833
H          H       0.55592   0.98034   0.67119   0.10321
H          H       0.61574   0.98572   0.68683   0.09947
H          H       0.29865   0.76265   0.85988   0.10437
H          H       0.31518   0.73769   0.42760   0.11409
H          H       0.34468   0.75829   0.54993   0.10336
H          H       0.12776   0.70765   0.86382   0.10765
H          H       0.05413   0.74989   0.46251   0.10839
H          H       0.10928   0.70429   0.39306   0.11294
H          H       0.05495   0.92209   0.57347   0.08459
H          H       0.04348   0.98510   0.91144   0.11424
H          H       0.11421   0.92845   0.57119   0.11062
H          H       0.31255   0.20411   0.48287   0.11452
H          H       0.34153   0.14202   0.93426   0.10751
H          H       0.34655   0.23250   0.32954   0.10881
C          C       0.73552   0.08416   0.03701  -0.16681
C          C       0.86089   0.91054   0.00028   0.16493
C          C       0.89514   0.92933   0.02323   0.07803
C          C       0.88193   0.86286   0.98157  -0.18794
C          C       0.93734   0.83312   0.98162  -0.16900
C          C       0.97169   0.85210  -0.00243   0.19808
C          C       0.95021   0.89950   0.02276  -0.28392
C          C       0.44480   0.99427   0.97620   0.20150
C          C       0.37244   0.30698   0.00260   0.20344
C          C       0.40621   0.32904   0.99529  -0.27334
C          C       0.38917   0.37430   0.02756   0.07242
C          C       0.33577   0.40003   0.05736   0.16598
C          C       0.30128   0.38038   0.05711  -0.18031
C          C       0.31942   0.33396   0.03066  -0.16509
C          C       0.39962   0.44655   0.02751   0.06659
C          C       0.34596   0.47086   0.05690   0.16579
C          C       0.42656   0.47579   0.99308  -0.18860
C          C       0.40163   0.52646   0.99473  -0.10752
C          C       0.34906   0.54919   0.02733  -0.09102
C          C       0.32100   0.52131   0.05656  -0.19186
C          C       0.39241   0.01065   0.01787  -0.28185
C          C       0.36760   0.98139   0.02688   0.17694
C          C       0.39231   0.93572   0.99145   0.05192
C          C       0.44355   0.92067   0.94343  -0.17759
C          C       0.46973   0.94882   0.94061  -0.17531
C          C       0.28473   0.98229   0.02975   0.15648
C          C       0.30747   0.93702   0.99215   0.07510
C          C       0.22908   0.01231   0.02022  -0.18046
C          C       0.19429   0.99694   0.97702  -0.16940
C          C       0.21588   0.95146   0.94289   0.20241
C          C       0.27220   0.92326   0.94274  -0.27914
C          C       0.47963   0.36609   0.02177  -0.27773
C          C       0.91104   0.99185   0.08785  -0.28159
C          C       0.39061   0.85673  -0.00263  -0.26764
C          C       0.05077   0.85093   0.93153   0.08203
C          C       0.20395   0.88197   0.98251   0.10072
C          C       0.18191   0.84943   0.97488  -0.15587
C          C       0.12684   0.86613   0.92723   0.21303
C          C       0.10898   0.82935   0.94743  -0.17267
C          C       0.14915   0.77413   0.00515   0.21544
C          C       0.20504   0.75693   0.04040  -0.15250
C          C       0.22065   0.79392   0.03048   0.19546
C          C       0.24696   0.69866   0.10479  -0.12990
C          C       0.57225   0.20592   0.94403  -0.17814
C          C       0.59027   0.98809   0.06780  -0.18312
C          C       0.31620   0.75486   0.99216  -0.18749
C          C       0.10190   0.73619   0.91705  -0.18673
C          C       0.07091   0.94188   0.98841  -0.18627
C          C       0.36198   0.14349   0.04113  -0.18783
C          C       0.44278   0.14950   0.96070   0.23224
C          C       0.47374   0.10048   0.94328  -0.16418
C          C       0.52940   0.08252   0.93596   0.22776
C          C       0.55566   0.10921   0.95501  -0.16994
C          C       0.52451   0.15503   0.98831   0.20796
C          C       0.46775   0.17737   0.98312  -0.15270
C          C       0.44052   0.22631   0.01108   0.09125
C          C       0.44852   0.07063   0.92766   0.11366
C          C       0.61317   0.08617   0.94321   0.10120
C          C       0.70283   0.06436   0.01191   0.20369
C          C       0.72863   0.01508  -0.00274  -0.27157
C          C       0.78432   0.98709   0.00947   0.17755
C          C       0.81743   0.00714   0.03246   0.05419
C          C       0.79142   0.05675   0.04226  -0.18769
C          C       0.72828   0.09417   0.51645  -0.17423
C          C       0.85609   0.91978   0.48932   0.16066
C          C       0.89084   0.93729   0.51953   0.08669
C          C       0.87620   0.87248   0.46898  -0.18781
C          C       0.93191   0.84032   0.48050  -0.16961
C          C       0.96759   0.85692   0.50747   0.19484
C          C       0.94655   0.90509   0.52825  -0.27916
C          C       0.44115   0.99782   0.46760   0.19345
C          C       0.36840   0.30390   0.52438   0.20730
C          C       0.39992   0.32829   0.51137  -0.27671
C          C       0.37911   0.37691   0.52357   0.08396
C          C       0.32516   0.40158   0.55025   0.16976
C          C       0.29317   0.37878   0.55894  -0.18462
C          C       0.31485   0.32959   0.54903  -0.15685
C          C       0.38668   0.45070   0.52309   0.07374
C          C       0.33449   0.47130   0.56665   0.16089
C          C       0.41212   0.48133   0.49030  -0.20036
C          C       0.38863   0.52809   0.51787  -0.09999
C          C       0.33951   0.54491   0.57693  -0.10206
C          C       0.31187   0.51698   0.59810  -0.20137
C          C       0.38912   0.01177   0.51196  -0.27735
C          C       0.36681   0.98035   0.52407   0.17511
C          C       0.39401   0.93423   0.49105   0.06235
C          C       0.44488   0.92129   0.44258  -0.18356
C          C       0.46788   0.95266   0.43101  -0.15607
C          C       0.28653   0.97609   0.53053   0.15590
C          C       0.31210   0.92974   0.49955   0.07494
C          C       0.23069   0.00339   0.52209  -0.17466
C          C       0.19868   0.98429   0.48683  -0.16664
C          C       0.22336   0.93725   0.46078   0.20246
C          C       0.27990   0.91095   0.46360  -0.28288
C          C       0.46718   0.37268   0.50463  -0.26935
C          C       0.90411   0.00011   0.59512  -0.27417
C          C       0.39662   0.85373   0.49321  -0.26974
C          C       0.05120   0.84809   0.44810   0.08505
C          C       0.21248   0.86586   0.50591   0.09193
C          C       0.18792   0.83485   0.50140  -0.17131
C          C       0.13215   0.85566   0.44640   0.21257
C          C       0.11042   0.82158   0.47083  -0.17456
C          C       0.14775   0.76496   0.53883   0.19445
C          C       0.20404   0.74237   0.59718  -0.05850
C          C       0.22234   0.77791   0.57605   0.17733
C          C       0.24351   0.68248   0.67920  -0.40770
C          C       0.55554   0.20608   0.52739  -0.19639
C          C       0.58716   0.98570   0.59951  -0.18132
C          C       0.30660   0.76532   0.48898  -0.19663
C          C       0.09289   0.74026   0.41748  -0.18748
C          C       0.07951   0.93607   0.48802  -0.18697
C          C       0.34647   0.19528   0.41114  -0.17700
C          C       0.44461   0.14520   0.49857   0.21306
C          C       0.47631   0.09530   0.48899  -0.14719
C          C       0.52940   0.08139   0.45341   0.22001
C          C       0.55069   0.11509   0.43193  -0.14587
C          C       0.51637   0.16596   0.42812   0.21292
C          C       0.46293   0.18211   0.46213  -0.15336
C          C       0.43164   0.23589   0.45451   0.08990
C          C       0.45128   0.06271   0.51116   0.09954
C          C       0.60794   0.09453   0.41436   0.12815
C          C       0.69637   0.07341   0.49396   0.20625
C          C       0.72281   0.02393   0.48146  -0.27027
C          C       0.77861   0.99651   0.49413   0.18275
C          C       0.81146   0.01644   0.51970   0.05444
C          C       0.78453   0.06670   0.52527  -0.18541
N          N       0.64755   0.09227   0.01788  -0.29284
N          N       0.87387   0.97624   0.04875  -0.00489
N          N       0.47416   0.01905   0.98228  -0.27744
N          N       0.38866   0.25948   0.98286  -0.28885
N          N       0.42335   0.39430   0.03836  -0.02180
N          N       0.36449   0.90763   0.01111  -0.04078
N          N       0.40709   0.64850   0.77168   0.01291
N          N       0.02675   0.82323   0.99205  -0.26930
N          N       0.18119   0.93392   0.91317  -0.27639
N          N       0.42321   0.64057   0.65627   0.00766
N          N       0.64055   0.10076   0.49623  -0.28644
N          N       0.86834   0.98556   0.53815  -0.03049
N          N       0.46842   0.02575   0.45343  -0.29953
N          N       0.38948   0.25314   0.52590  -0.27223
N          N       0.41066   0.40041   0.51878  -0.03540
N          N       0.36883   0.90394   0.51077  -0.03495
N          N       0.32022   0.66108   0.35943  -0.35859
N          N       0.02326   0.82484   0.51382  -0.27025
N          N       0.19079   0.91772   0.43086  -0.26721
N          N       0.27311   0.67716   0.29986   0.10612
O          O       0.54876   0.17562   0.05157  -0.16562
O          O       0.38912   0.17313   0.96655  -0.12050
O          O       0.56005   0.03754   0.90547  -0.20187
O          O       0.80605   0.93725   0.00470  -0.18231
O          O       0.31593   0.44531   0.09031  -0.18812
O          O       0.31821   0.99687   0.08480  -0.18865
O          O       0.27397   0.77722   0.08681  -0.18153
O          O       0.13770   0.73413   0.04608  -0.17249
O          O       0.08783   0.91985   0.85913  -0.18670
O          O       0.53417   0.20241   0.37965  -0.19196
O          O       0.39521   0.15602   0.54864  -0.18992
O          O       0.56289   0.03486   0.43533  -0.18958
O          O       0.80061   0.94788   0.48213  -0.18241
O          O       0.30359   0.44707   0.58173  -0.18703
O          O       0.31700   0.99453   0.57884  -0.18568
O          O       0.27756   0.75546   0.63269  -0.17881
O          O       0.13280   0.72831   0.55820  -0.15304
O          O       0.09662   0.91038   0.36826  -0.18869

