data_crystal

_audit_creation_method 'AiiDA-DDEC plugin'

_cell_length_a        17.97946
_cell_length_b        19.03187
_cell_length_c         8.05921

_cell_angle_alpha     121.65906
_cell_angle_beta     85.89911
_cell_angle_gamma     119.56585

_symmetry_space_group_name_Hall 'P 1'
_symmetry_space_group_name_H-M  'P 1'

loop_
_symmetry_equiv_pos_as_xyz
 'x,y,z'

loop_
_atom_site_label
_atom_site_type_symbol
_atom_site_fract_x
_atom_site_fract_y
_atom_site_fract_z
_atom_site_charge
H          H       0.54771   0.28044   0.98948   0.10761
H          H       0.46514   0.34729   0.96267   0.11419
H          H       0.70189   0.57487   0.96973   0.10794
H          H       0.78609   0.51092   0.00615   0.12111
H          H       0.63127   0.62568   0.95347   0.11089
H          H       0.38128   0.60184   0.96283   0.11031
H          H       0.42755   0.68835   0.84967   0.10138
H          H       0.49243   0.90242   0.39717   0.12278
H          H       0.74886   0.93544   0.15472   0.10686
H          H       0.68413   0.77802   0.11380   0.10428
H          H       0.30844   0.33472   0.97889   0.10978
H          H       0.14727   0.29712   0.49042   0.12034
H          H       0.10026   0.42195   0.90649   0.10700
H          H       0.25327   0.51318   0.90365   0.10086
H          H       0.63204   0.26099   0.07164   0.04351
H          H       0.89410   0.15043   0.02918   0.11545
H          H       0.86603   0.36406   0.03786   0.11299
H          H       0.00615   0.38453   0.04903   0.06203
H          H       0.77832   0.01740   0.00767   0.06025
H          H       0.60288   0.15902   0.06813   0.34636
H          H       0.53798   0.32992   0.49052   0.10849
H          H       0.45731   0.39876   0.46299   0.11279
H          H       0.69603   0.62330   0.46728   0.10391
H          H       0.77681   0.55322   0.49024   0.11892
H          H       0.62664   0.67439   0.44647   0.11011
H          H       0.37821   0.65406   0.45370   0.10943
H          H       0.42612   0.73842   0.33511   0.10327
H          H       0.49318   0.84935   0.89972   0.12327
H          H       0.74717   0.98531   0.64778   0.10505
H          H       0.68057   0.82677   0.60659   0.10236
H          H       0.30338   0.38698   0.47388   0.11160
H          H       0.15082   0.24167   0.98567   0.11773
H          H       0.09977   0.48635   0.43990   0.10317
H          H       0.25033   0.57113   0.41663   0.09998
H          H       0.62455   0.31095   0.57951   0.04484
H          H       0.89213   0.20668   0.53779   0.11404
H          H       0.85906   0.41877   0.55255   0.11313
H          H       0.00031   0.44132   0.55935   0.06127
H          H       0.77834   0.07194   0.51236   0.06115
H          H       0.59942   0.21278   0.59404   0.34239
C          C       0.67493   0.39330   0.00633   0.18929
C          C       0.58287   0.34570   0.98787  -0.18546
C          C       0.53555   0.38237   0.97145  -0.10514
C          C       0.57667   0.46629   0.96713   0.03096
C          C       0.66767   0.51146   0.97775  -0.12094
C          C       0.71567   0.47578  -0.00292  -0.15048
C          C       0.52396   0.50424   0.95463   0.20213
C          C       0.56241   0.58902   0.95575  -0.22940
C          C       0.51168   0.62657   0.95840   0.11898
C          C       0.42244   0.57389   0.95388  -0.22102
C          C       0.38714   0.48775   0.94648   0.20982
C          C       0.55079   0.71958   0.97540   0.04897
C          C       0.29352   0.43207   0.94587   0.02088
C          C       0.49791   0.74211   0.91757  -0.11642
C          C       0.53253   0.88373   0.43988  -0.14669
C          C       0.62372   0.95436   0.52433   0.21012
C          C       0.67872   0.88079   0.08384  -0.18668
C          C       0.64191   0.79113   0.05922  -0.11381
C          C       0.26207   0.35320   0.96413  -0.10200
C          C       0.17465   0.30152   0.96794  -0.15445
C          C       0.11524   0.32742   0.95565   0.20454
C          C       0.14576   0.40440   0.93088  -0.17536
C          C       0.23299   0.45562   0.92689  -0.11740
C          C       0.69977   0.29479   0.05426   0.10122
C          C       0.75231   0.25676   0.05723  -0.07513
C          C       0.71538   0.17305   0.06319   0.26606
C          C       0.76649   0.13318   0.05245  -0.04684
C          C       0.85346   0.17910   0.03652  -0.12420
C          C       0.89133   0.26284   0.03313   0.02973
C          C       0.83997   0.30053   0.04419  -0.12067
C          C       0.98137   0.31175   0.01638   0.08101
C          C       0.73199   0.04236   0.03938   0.09046
C          C       0.66474   0.43823   0.49544   0.19427
C          C       0.57349   0.39427   0.48581  -0.18074
C          C       0.52752   0.43236   0.47030  -0.09700
C          C       0.56992   0.51567   0.46377   0.03727
C          C       0.66077   0.55934   0.47315  -0.12164
C          C       0.70691   0.52074   0.48644  -0.14763
C          C       0.51847   0.55462   0.45060   0.20550
C          C       0.55767   0.63849   0.44817  -0.22005
C          C       0.50786   0.67659   0.44893   0.11294
C          C       0.41853   0.62526   0.44558  -0.21971
C          C       0.38261   0.54042   0.44352   0.20247
C          C       0.54821   0.76979   0.46640   0.04922
C          C       0.28970   0.48734   0.45014   0.02536
C          C       0.49613   0.79295   0.40784  -0.12351
C          C       0.53398   0.83188   0.94430  -0.15289
C          C       0.62512   0.90305   0.02700   0.20768
C          C       0.67690   0.93107   0.57864  -0.17438
C          C       0.63924   0.84096   0.55242  -0.11600
C          C       0.25802   0.40804   0.46710  -0.11184
C          C       0.17129   0.35825   0.47692  -0.14360
C          C       0.11299   0.38721   0.47485   0.19998
C          C       0.14402   0.46505   0.45269  -0.17807
C          C       0.23011   0.51347   0.43951  -0.12091
C          C       0.69060   0.34199   0.55236   0.07468
C          C       0.74546   0.30718   0.56144  -0.07898
C          C       0.71040   0.22392   0.56799   0.27460
C          C       0.76369   0.18637   0.55829  -0.03666
C          C       0.85090   0.23491   0.54696  -0.13067
C          C       0.88776   0.31981   0.54852   0.03104
C          C       0.83409   0.35459   0.55574  -0.12187
C          C       0.97795   0.37050   0.53423   0.07852
C          C       0.73100   0.09542   0.54240   0.09465
N          N       0.43752   0.45378   0.94695  -0.33953
N          N       0.72974   0.36399   0.02586  -0.30159
N          N       0.02898   0.27394   0.96796  -0.29730
N          N       0.65266   0.04359   0.55224  -0.26472
N          N       0.43226   0.50624   0.44662  -0.33104
N          N       0.71810   0.40648   0.51013  -0.29399
N          N       0.02765   0.33524   0.49328  -0.29993
N          N       0.65390   0.99189   0.05269  -0.26251
O          O       0.62581   0.17602   0.57711  -0.39438
O          O       0.63074   0.12744   0.07482  -0.39195

