data_crystal

_audit_creation_method 'AiiDA-DDEC plugin'

_cell_length_a        29.04901
_cell_length_b        28.94277
_cell_length_c         9.26960

_cell_angle_alpha     79.35816
_cell_angle_beta     91.06688
_cell_angle_gamma     119.51513

_symmetry_space_group_name_Hall 'P 1'
_symmetry_space_group_name_H-M  'P 1'

loop_
_symmetry_equiv_pos_as_xyz
 'x,y,z'

loop_
_atom_site_label
_atom_site_type_symbol
_atom_site_fract_x
_atom_site_fract_y
_atom_site_fract_z
_atom_site_charge
P          P       0.72015   0.66230   0.44848   1.18718
P          P       0.29170   0.01742   0.42896   1.16614
P          P       0.98940   0.29262   0.44980   1.17194
P          P       0.28450   0.30285   0.46641   1.17018
P          P       0.68914   0.98041   0.46449   1.19036
P          P       0.01021   0.71634   0.42163   1.16643
P          P       0.70500   0.66534   0.93119   1.18487
P          P       0.35397   0.06263   0.91305   1.18033
P          P       0.93924   0.29482   0.97273   1.17705
P          P       0.30616   0.36786   0.94025   1.18259
P          P       0.69340   0.99317   0.94284   1.18240
P          P       0.05151   0.69240   0.93147   1.17470
H          H       0.45355   0.67640   0.89918   0.26901
H          H       0.31872   0.78650   0.97433   0.27060
H          H       0.21013   0.54828   0.85591   0.27123
H          H       0.53685   0.33794   0.89101   0.27242
H          H       0.65515   0.21411   0.79961   0.26816
H          H       0.78088   0.44277   0.96368   0.26958
H          H       0.45687   0.58870   0.33234   0.27900
H          H       0.41501   0.86738   0.39209   0.26868
H          H       0.13247   0.55549   0.28557   0.27516
H          H       0.54918   0.41634   0.35095   0.26687
H          H       0.59110   0.13095   0.22557   0.27591
H          H       0.86918   0.44744   0.36031   0.27205
H          H       0.59738   0.53481   0.06983   0.13937
H          H       0.47334   0.06830   0.93376   0.12889
H          H       0.92997   0.39635   0.01215   0.13323
H          H       0.40747   0.47827   0.01810   0.13739
H          H       0.52326   0.92669   0.08613   0.14477
H          H       0.05643   0.58452   0.06100   0.13663
H          H       0.67282   0.52941   0.26692   0.12778
H          H       0.46941   0.19033   0.02096   0.13694
H          H       0.80636   0.27180   0.14668   0.14062
H          H       0.26747   0.46759   0.04601   0.13908
H          H       0.58024   0.87301   0.28514   0.13233
H          H       0.16256   0.67300   0.12798   0.13622
H          H       0.79875   0.57165   0.63685   0.13189
H          H       0.39142   0.19947   0.49710   0.13005
H          H       0.81155   0.20650   0.66415   0.13521
H          H       0.21001   0.40936   0.56507   0.13088
H          H       0.63522   0.81415   0.69048   0.12524
H          H       0.18871   0.77216   0.53550   0.13658
H          H       0.78756   0.60186   0.46366   0.13123
H          H       0.41848   0.17319   0.38635   0.12353
H          H       0.83695   0.26263   0.51351   0.12391
H          H       0.26432   0.43669   0.43052   0.12502
H          H       0.65770   0.85753   0.51318   0.13481
H          H       0.15197   0.71578   0.45085   0.11831
H          H       0.77802   0.64480   0.66891   0.07811
H          H       0.31691   0.12425   0.39468   0.06725
H          H       0.88615   0.20971   0.51617   0.06014
H          H       0.20863   0.33392   0.45853   0.05717
H          H       0.69085   0.91218   0.71427   0.08546
H          H       0.11975   0.78458   0.38967   0.06211
H          H       0.74852   0.62751   0.19409   0.07995
H          H       0.40973   0.11013   0.22519   0.07470
H          H       0.88286   0.28917   0.30550   0.07240
H          H       0.29126   0.41268   0.24918   0.07548
H          H       0.67812   0.91580   0.21646   0.08367
H          H       0.09264   0.67674   0.27966   0.07114
H          H       0.75640   0.77212   0.35583   0.05880
H          H       0.20542   0.91649   0.49825   0.06329
H          H       0.09117   0.31676   0.42159   0.05892
H          H       0.29229   0.21139   0.53259   0.06007
H          H       0.78774   0.07054   0.37242   0.05866
H          H       0.90885   0.70005   0.45586   0.06540
H          H       0.73371   0.78638   0.03971   0.06867
H          H       0.22997   0.94699   0.01231   0.07153
H          H       0.97513   0.22478   0.98536   0.07286
H          H       0.30227   0.24416   0.04569   0.07192
H          H       0.79962   0.09917   0.07463   0.07188
H          H       0.96303   0.74008   0.94939   0.07418
H          H       0.83073   0.81958   0.02162   0.12878
H          H       0.18147   0.99790   0.95457   0.12403
H          H       0.07362   0.25376   0.96085   0.13313
H          H       0.20429   0.19006   0.04453   0.12521
H          H       0.85183   0.05151   0.10025   0.13008
H          H       0.03471   0.83723   0.87855   0.12568
H          H       0.82932   0.76778   0.48851   0.13344
H          H       0.17129   0.97978   0.51529   0.14790
H          H       0.04016   0.21575   0.51520   0.14664
H          H       0.19655   0.17987   0.59498   0.14527
H          H       0.80606   0.00477   0.54003   0.13997
H          H       0.97232   0.79904   0.44812   0.14879
H          H       0.79908   0.75733   0.15520   0.14735
H          H       0.22176   0.02087   0.10226   0.15917
H          H       0.05990   0.30149   0.84707   0.12994
H          H       0.21925   0.23081   0.18031   0.15710
H          H       0.79193   0.01046   0.21919   0.14802
H          H       0.04300   0.80741   0.05673   0.15609
H          H       0.67207   0.67293   0.25219   0.16184
H          H       0.28399   0.94964   0.31089   0.16288
H          H       0.04770   0.35827   0.24896   0.16287
H          H       0.34387   0.29457   0.31967   0.16311
H          H       0.68510   0.03201   0.24520   0.16240
H          H       0.93830   0.66044   0.29877   0.16019
H          H       0.65235   0.60432   0.31079   0.16067
H          H       0.34392   0.00947   0.25011   0.16297
H          H       0.98769   0.35823   0.25572   0.16264
H          H       0.34881   0.35797   0.26160   0.16409
H          H       0.62436   0.97179   0.29119   0.16085
H          H       0.99649   0.66156   0.24568   0.16023
H          H       0.58106   0.62745   0.35590   0.07380
H          H       0.35649   0.93377   0.38208   0.07940
H          H       0.06237   0.44508   0.30204   0.07215
H          H       0.43220   0.36571   0.36088   0.07670
H          H       0.61786   0.05442   0.29710   0.07047
H          H       0.92777   0.57025   0.37384   0.07715
H          H       0.61573   0.69119   0.94312   0.08168
H          H       0.32700   0.94883   0.88273   0.08737
H          H       0.05015   0.38642   0.84575   0.09084
H          H       0.39824   0.34910   0.87174   0.09372
H          H       0.67608   0.08931   0.95007   0.08178
H          H       0.93451   0.61378   0.96223   0.08710
H          H       0.79568   0.35498   0.43278   0.11476
H          H       0.63329   0.42103   0.51086   0.10818
H          H       0.56541   0.20251   0.38168   0.10873
H          H       0.20348   0.63951   0.46935   0.10975
H          H       0.36455   0.56930   0.42809   0.11623
H          H       0.43203   0.79108   0.53472   0.11439
H          H       0.46006   0.66694   0.49472   0.27273
H          H       0.32476   0.78036   0.54890   0.27054
H          H       0.21634   0.54881   0.40730   0.26961
H          H       0.53734   0.31792   0.47816   0.27041
H          H       0.67179   0.21332   0.34092   0.27021
H          H       0.78361   0.44221   0.52497   0.27076
H          H       0.47483   0.60277   0.80171   0.26802
H          H       0.39369   0.88314   0.86956   0.26708
H          H       0.11406   0.51859   0.79600   0.27793
H          H       0.51294   0.41018   0.84862   0.26903
H          H       0.57860   0.12512   0.71916   0.26918
H          H       0.87334   0.46193   0.83348   0.26533
H          H       0.58299   0.49251   0.54327   0.13661
H          H       0.48600   0.08331   0.42345   0.13558
H          H       0.92186   0.41100   0.50121   0.13565
H          H       0.41429   0.49339   0.47331   0.13653
H          H       0.49726   0.91574   0.53790   0.13716
H          H       0.07963   0.59186   0.47376   0.13267
H          H       0.73748   0.53669   0.56056   0.13986
H          H       0.41314   0.15468   0.58285   0.14261
H          H       0.85551   0.27217   0.69525   0.13999
H          H       0.27397   0.42708   0.62272   0.14314
H          H       0.59080   0.82953   0.58647   0.13445
H          H       0.13807   0.71080   0.64227   0.14355
H          H       0.73505   0.53308   0.24187   0.14002
H          H       0.42678   0.20432   0.11592   0.13082
H          H       0.79345   0.21174   0.27213   0.13147
H          H       0.21006   0.41558   0.15901   0.12743
H          H       0.59636   0.82215   0.27335   0.13091
H          H       0.19035   0.73508   0.18996   0.13490
H          H       0.68989   0.51537   0.10300   0.13383
H          H       0.41175   0.18628   0.94042   0.14579
H          H       0.81442   0.22125   0.08380   0.13918
H          H       0.22433   0.40689   0.98293   0.14264
H          H       0.56547   0.84254   0.12766   0.13300
H          H       0.17354   0.73303   0.00469   0.14833
H          H       0.76142   0.61298   0.02516   0.07017
H          H       0.35303   0.10737   0.14364   0.07027
H          H       0.89048   0.23863   0.24467   0.07321
H          H       0.24713   0.35240   0.18757   0.07377
H          H       0.66429   0.88443   0.05968   0.06375
H          H       0.10453   0.73690   0.15693   0.07020
H          H       0.72794   0.58046   0.76229   0.07891
H          H       0.31507   0.10595   0.59144   0.08427
H          H       0.90236   0.21973   0.69998   0.08989
H          H       0.21925   0.32717   0.65087   0.08942
H          H       0.62468   0.88478   0.78634   0.07638
H          H       0.10582   0.77599   0.58363   0.08420
H          H       0.75169   0.77896   0.86663   0.06274
H          H       0.25600   0.99077   0.83696   0.05915
H          H       0.00368   0.23662   0.15676   0.09099
H          H       0.28346   0.26966   0.87899   0.06346
H          H       0.79928   0.07634   0.90926   0.06340
H          H       0.00433   0.74878   0.79558   0.05919
H          H       0.73206   0.78259   0.51419   0.06878
H          H       0.20728   0.90349   0.69243   0.07747
H          H       0.10888   0.32663   0.60222   0.06997
H          H       0.30494   0.21135   0.72051   0.07916
H          H       0.79264   0.10509   0.51681   0.06401
H          H       0.90129   0.68772   0.65079   0.07463
H          H       0.83123   0.82927   0.50349   0.12993
H          H       0.12832   0.91420   0.62480   0.13486
H          H       0.10836   0.24359   0.55183   0.13896
H          H       0.21471   0.13368   0.69938   0.13553
H          H       0.85765   0.07207   0.54402   0.13007
H          H       0.90914   0.77784   0.53793   0.13573
H          H       0.81951   0.75791   0.97495   0.14198
H          H       0.24252   0.06079   0.91981   0.13599
H          H       0.08918   0.31502   0.01619   0.13064
H          H       0.19975   0.25025   0.00641   0.13651
H          H       0.79795   0.99369   0.04780   0.13880
H          H       0.08394   0.81742   0.89889   0.13313
H          H       0.80414   0.77251   0.65545   0.14720
H          H       0.17292   0.96793   0.71074   0.13036
H          H       0.05925   0.22545   0.69610   0.13199
H          H       0.20829   0.18086   0.78422   0.13102
H          H       0.80624   0.03439   0.69198   0.14556
H          H       0.96368   0.78752   0.64373   0.12736
H          H       0.65724   0.67572   0.73444   0.16329
H          H       0.36168   0.03412   0.69776   0.16142
H          H       0.96829   0.34286   0.72878   0.16700
H          H       0.35656   0.39364   0.71432   0.16576
H          H       0.69086   0.05333   0.73902   0.16448
H          H       0.00177   0.65409   0.74239   0.16253
H          H       0.62958   0.60697   0.81413   0.16373
H          H       0.42282   0.06347   0.77254   0.15365
H          H       0.93719   0.36993   0.81842   0.14729
H          H       0.38157   0.44837   0.80671   0.15053
H          H       0.62856   0.99456   0.78248   0.16681
H          H       0.03161   0.61657   0.81997   0.15984
H          H       0.56902   0.64462   0.83987   0.07502
H          H       0.38472   0.96381   0.77707   0.06528
H          H       0.03399   0.43472   0.75044   0.06073
H          H       0.44564   0.41606   0.78408   0.05341
H          H       0.62663   0.07642   0.82159   0.07566
H          H       0.93075   0.56618   0.85742   0.07030
H          H       0.62011   0.66670   0.48492   0.07623
H          H       0.32286   0.92977   0.54699   0.07641
H          H       0.07838   0.40984   0.45613   0.07129
H          H       0.39751   0.32701   0.53684   0.07677
H          H       0.66160   0.06975   0.44181   0.07256
H          H       0.92491   0.59449   0.53520   0.07347
H          H       0.78543   0.35031   0.88105   0.11312
H          H       0.63556   0.43486   0.94841   0.11613
H          H       0.55183   0.21104   0.82535   0.11360
H          H       0.19474   0.63972   0.89744   0.11578
H          H       0.35915   0.57126   0.87167   0.11197
H          H       0.42519   0.79557   0.95738   0.11451
C          C       0.61151   0.63241   0.43345   0.08259
C          C       0.34709   0.95703   0.44569   0.07973
C          C       0.04607   0.40880   0.39076   0.08059
C          C       0.39814   0.35456   0.43722   0.07577
C          C       0.63193   0.03702   0.39112   0.07994
C          C       0.95073   0.60085   0.43999   0.08334
C          C       0.66080   0.64082   0.35134  -0.50710
C          C       0.31876   0.98216   0.35003  -0.49391
C          C       0.01882   0.35813   0.32452  -0.49689
C          C       0.34731   0.32948   0.36022  -0.49131
C          C       0.65485   0.00541   0.33731  -0.50408
C          C       0.97222   0.65687   0.34237  -0.49741
C          C       0.73096   0.60102   0.11419   0.09434
C          C       0.39480   0.11933   0.12066   0.10815
C          C       0.87668   0.26798   0.21439   0.10626
C          C       0.27253   0.39649   0.15274   0.10734
C          C       0.64918   0.89979   0.13548   0.09391
C          C       0.10637   0.69948   0.16614   0.10820
C          C       0.76884   0.57710   0.57295  -0.42978
C          C       0.39369   0.16331   0.48746  -0.39872
C          C       0.84690   0.24541   0.61678  -0.40307
C          C       0.24710   0.40994   0.53859  -0.40311
C          C       0.63217   0.84624   0.61388  -0.42749
C          C       0.14905   0.73728   0.53289  -0.40005
C          C       0.74948   0.76561   0.98640   0.11771
C          C       0.25111   0.98958   0.95497   0.11491
C          C       0.00508   0.25524   0.04149   0.10577
C          C       0.27973   0.26379  -0.00059   0.11331
C          C       0.78674   0.06298   0.02759   0.12265
C          C       0.00345   0.75114   0.91220   0.11656
C          C       0.80300   0.77572   0.03805  -0.43651
C          C       0.22254   0.01928   0.98491  -0.43596
C          C       0.06014   0.28318   0.96173  -0.41686
C          C       0.22220   0.23185   0.06179  -0.43379
C          C       0.80833   0.02737   0.10386  -0.43778
C          C       0.04393   0.80671   0.93880  -0.43255
C          C       0.38448   0.69744   0.91418   0.36396
C          C       0.29658   0.69746   0.92633   0.36891
C          C       0.29799   0.61374   0.88131   0.35583
C          C       0.60059   0.31028   0.86957   0.35537
C          C       0.68363   0.30169   0.85206   0.36114
C          C       0.69012   0.38650   0.91878   0.37075
C          C       0.35380   0.72364   0.93616  -0.25323
C          C       0.26989   0.64276   0.89499  -0.25061
C          C       0.35536   0.64209   0.89064  -0.24963
C          C       0.62677   0.28010   0.84416  -0.25242
C          C       0.71403   0.35448   0.89338  -0.25175
C          C       0.63320   0.36358   0.90402  -0.25047
C          C       0.45178   0.44525   0.49106   0.21950
C          C       0.54157   0.00202   0.48754   0.21760
C          C       0.99473   0.54716   0.49219   0.23062
C          C       0.54537   0.54034   0.52807   0.22407
C          C       0.44132   0.99674   0.48348   0.21962
C          C       0.00632   0.45578   0.48381   0.20986
C          C       0.45178   0.49389   0.48726  -0.20395
C          C       0.49450   0.95245   0.51341  -0.20327
C          C       0.04493   0.55197   0.47995  -0.20655
C          C       0.54581   0.49255   0.52751  -0.21477
C          C       0.48864   0.04651   0.44956  -0.20861
C          C       0.95636   0.45103   0.49438  -0.20368
C          C       0.49070   0.58651   0.53496   0.45921
C          C       0.39895   0.89346   0.57251   0.45600
C          C       0.10565   0.51542   0.50551   0.46210
C          C       0.50424   0.39454   0.55341   0.45361
C          C       0.58485   0.10437   0.45631   0.46916
C          C       0.89470   0.48192   0.54745   0.44964
C          C       0.49723   0.54066   0.51004  -0.12515
C          C       0.44451   0.94889   0.51664  -0.14251
C          C       0.05125   0.50691   0.48176  -0.12964
C          C       0.49936   0.44438   0.51425  -0.14222
C          C       0.53836   0.04975   0.45611  -0.12751
C          C       0.94964   0.49522   0.50503  -0.13829
C          C       0.38715   0.60894   0.45745   0.09798
C          C       0.38880   0.77095   0.54207   0.10417
C          C       0.22363   0.61702   0.45648   0.10360
C          C       0.61002   0.37882   0.50021   0.10447
C          C       0.60857   0.22208   0.37684   0.10079
C          C       0.77523   0.37477   0.46661   0.10527
C          C       0.60010   0.65109   0.91606   0.07440
C          C       0.36981   0.97673   0.86058   0.07835
C          C       0.02209   0.40136   0.84548   0.07760
C          C       0.41176   0.39199   0.86769   0.07676
C          C       0.64301   0.05757   0.90476   0.07698
C          C       0.95499   0.59346   0.93073   0.08162
C          C       0.64412   0.64703   0.84129  -0.49841
C          C       0.38048   0.03434   0.80209  -0.50511
C          C       0.96620   0.35593   0.83175  -0.50191
C          C       0.36777   0.40483   0.82234  -0.50117
C          C       0.66127   0.02553   0.83152  -0.49411
C          C       0.00901   0.63532   0.84844  -0.50428
C          C       0.74739   0.60473   0.65324   0.11374
C          C       0.33807   0.11633   0.48657   0.09710
C          C       0.89317   0.23624   0.59442   0.09624
C          C       0.23551   0.35264   0.54107   0.09588
C          C       0.64972   0.89486   0.68557   0.11201
C          C       0.10960   0.75678   0.49671   0.10107
C          C       0.70552   0.54131   0.18487  -0.40501
C          C       0.42770   0.17835   0.04436  -0.42397
C          C       0.81939   0.24178   0.17604  -0.42279
C          C       0.24212   0.42345   0.07995  -0.42377
C          C       0.59462   0.85710   0.20899  -0.40508
C          C       0.16122   0.71066   0.11899  -0.42568
C          C       0.75356   0.76407   0.47680   0.12289
C          C       0.20985   0.93371   0.59713   0.11321
C          C       0.07869   0.29925   0.53929   0.11200
C          C       0.27934   0.21585   0.63722   0.11492
C          C       0.78233   0.06556   0.49237   0.12423
C          C       0.92861   0.71438   0.55361   0.11611
C          C       0.80800   0.78484   0.53503  -0.43302
C          C       0.16819   0.95014   0.61291  -0.42662
C          C       0.07096   0.24241   0.57814  -0.42656
C          C       0.22105   0.17512   0.68150  -0.42474
C          C       0.81518   0.04280   0.57237  -0.42919
C          C       0.94461   0.77337   0.54530  -0.42741
C          C       0.38981   0.68913   0.51975   0.36223
C          C       0.30309   0.69157   0.52241   0.36001
C          C       0.30410   0.60927   0.46374   0.36711
C          C       0.60609   0.29594   0.45635   0.36221
C          C       0.69398   0.29749   0.42149   0.36983
C          C       0.69281   0.37709   0.50013   0.35881
C          C       0.35997   0.71668   0.53546  -0.24632
C          C       0.27662   0.63846   0.48241  -0.25074
C          C       0.36086   0.63592   0.48251  -0.25165
C          C       0.63676   0.27193   0.41595  -0.25176
C          C       0.72062   0.34968   0.46716  -0.24475
C          C       0.63552   0.34976   0.48989  -0.24533
C          C       0.46634   0.45376   0.02072   0.21969
C          C       0.55200   0.01159   0.01186   0.22389
C          C       0.97490   0.52631   0.05029   0.21609
C          C       0.53979   0.56088   0.04585   0.21981
C          C       0.44385   0.98242   0.99541   0.21507
C          C       0.01252   0.45741   0.99554   0.22880
C          C       0.44955   0.49147   0.02168  -0.20715
C          C       0.51193   0.95745   0.05092  -0.20313
C          C       0.02901   0.54385   0.04443  -0.20055
C          C       0.55595   0.52245   0.05452  -0.19384
C          C       0.48399   0.03677   0.95863  -0.20306
C          C       0.95782   0.43868   0.01189  -0.21383
C          C       0.46452   0.58250   0.03396   0.48339
C          C       0.41909   0.88294   0.08459   0.47536
C          C       0.10745   0.53628   0.00492   0.46570
C          C       0.54187   0.43176   0.04963   0.46418
C          C       0.57661   0.11082   0.94714   0.47735
C          C       0.88022   0.45014   0.06211   0.48253
C          C       0.48592   0.54484   0.03239  -0.10726
C          C       0.45827   0.94253   0.04205  -0.11743
C          C       0.04832   0.51053   0.01333  -0.12922
C          C       0.51987   0.46924   0.03962  -0.12985
C          C       0.53762   0.05173   0.96640  -0.13478
C          C       0.93894   0.47281   0.03726  -0.11164
C          C       0.38169   0.61367   0.88108   0.10431
C          C       0.38207   0.77620   0.95900   0.10349
C          C       0.21546   0.61785   0.88439   0.11047
C          C       0.61061   0.39472   0.92441   0.09857
C          C       0.59474   0.22804   0.82044   0.10571
C          C       0.76784   0.37400   0.90503   0.10107
N          N       0.46149   0.59883   0.43604  -0.25964
N          N       0.39766   0.85642   0.49888  -0.25839
N          N       0.14262   0.55050   0.39356  -0.26986
N          N       0.53866   0.39371   0.45769  -0.26651
N          N       0.59799   0.14143   0.32867  -0.27118
N          N       0.85866   0.44941   0.46518  -0.24876
N          N       0.43932   0.62906   0.46545  -0.09644
N          N       0.36622   0.80119   0.55156  -0.10699
N          N       0.19591   0.56996   0.41251  -0.09657
N          N       0.55763   0.35794   0.49365  -0.09620
N          N       0.63103   0.19590   0.33090  -0.10290
N          N       0.80474   0.42314   0.50278  -0.09706
N          N       0.45769   0.60410   0.89739  -0.26721
N          N       0.39081   0.86071   0.97260  -0.25638
N          N       0.13260   0.53973   0.87732  -0.24675
N          N       0.53663   0.40864   0.92986  -0.24415
N          N       0.57998   0.14130   0.81137  -0.27575
N          N       0.85401   0.44163   0.93795  -0.25999
N          N       0.43446   0.63640   0.88203  -0.10149
N          N       0.35953   0.80508   0.98412  -0.10058
N          N       0.18751   0.56769   0.85733  -0.10896
N          N       0.55875   0.37685   0.91583  -0.09389
N          N       0.61415   0.19706   0.79051  -0.11252
N          N       0.79957   0.42095   0.94600  -0.09783
O          O       0.57621   0.61351   0.05673  -0.24468
O          O       0.39080   0.96748   0.00037  -0.24416
O          O       0.03199   0.42371   0.97932  -0.24233
O          O       0.43040   0.40067   0.01298  -0.24882
O          O       0.60330   0.02290   0.02747  -0.21248
O          O       0.95661   0.56100   0.06932  -0.25020
O          O       0.68866   0.61034   0.04895  -0.41135
O          O       0.39722   0.08303   0.03150  -0.41004
O          O       0.91220   0.31067   0.09105  -0.41096
O          O       0.31759   0.40750   0.05378  -0.41178
O          O       0.64361   0.94457   0.04897  -0.40907
O          O       0.06617   0.66441   0.07736  -0.39958
O          O       0.77023   0.68408   0.35426  -0.70960
O          O       0.25592   0.02941   0.33287  -0.70427
O          O       0.97685   0.24676   0.37648  -0.70887
O          O       0.23805   0.26901   0.38967  -0.71016
O          O       0.71946   0.95985   0.39581  -0.70718
O          O       0.02542   0.76789   0.31653  -0.70340
O          O       0.70838   0.70818   0.02785  -0.41739
O          O       0.30354   0.01175   0.01383  -0.41608
O          O       0.99004   0.29641   0.04811  -0.40341
O          O       0.30750   0.31705   0.04166  -0.41295
O          O       0.72836   0.03518   0.04748  -0.42095
O          O       0.01181   0.70847  -0.00010  -0.41846
O          O       0.45078   0.59042   0.14888  -0.48215
O          O       0.41653   0.85593   0.20815  -0.48417
O          O       0.13313   0.55951   0.10383  -0.48313
O          O       0.56742   0.42621   0.15414  -0.47901
O          O       0.60175   0.13177   0.04908  -0.46953
O          O       0.85699   0.43761   0.18613  -0.47735
O          O       0.55088   0.29042   0.86134  -0.47074
O          O       0.70588   0.27539   0.82675  -0.47124
O          O       0.71761   0.43275   0.95177  -0.47719
O          O       0.43456   0.72202   0.91738  -0.46950
O          O       0.27107   0.72131   0.94431  -0.47033
O          O       0.27369   0.56521   0.86105  -0.47318
O          O       0.59130   0.58454   0.55081  -0.22030
O          O       0.39592   0.00006   0.48469  -0.19613
O          O       0.00687   0.40862   0.48581  -0.20195
O          O       0.40322   0.40272   0.47767  -0.18822
O          O       0.58757   0.00016   0.49998  -0.20636
O          O       0.99486   0.59431   0.49282  -0.19035
O          O       0.70506   0.61013   0.57506  -0.40162
O          O       0.34256   0.06858   0.47126  -0.40058
O          O       0.94012   0.28955   0.53458  -0.40042
O          O       0.28639   0.35512   0.50708  -0.40100
O          O       0.64319   0.93756   0.58974  -0.40257
O          O       0.05736   0.70874   0.49142  -0.39929
O          O       0.75413   0.68654   0.83427  -0.71184
O          O       0.34273   0.10409   0.82694  -0.70540
O          O       0.90317   0.24347   0.92392  -0.70766
O          O       0.25751   0.35380   0.86150  -0.69814
O          O       0.72495   0.97707   0.86161  -0.71125
O          O       0.09693   0.73819   0.83327  -0.69936
O          O       0.71949   0.70592   0.53412  -0.41427
O          O       0.26403   0.97986   0.59040  -0.42644
O          O       0.03017   0.30002   0.57728  -0.41984
O          O       0.28984   0.27166   0.62495  -0.42286
O          O       0.72572   0.03122   0.54143  -0.41781
O          O       0.97450   0.70592   0.57008  -0.42610
O          O       0.50736   0.60880   0.64276  -0.49578
O          O       0.36829   0.88200   0.68208  -0.49017
O          O       0.11590   0.49566   0.62421  -0.47908
O          O       0.48316   0.36119   0.67046  -0.47967
O          O       0.60653   0.11582   0.57178  -0.48536
O          O       0.88283   0.49612   0.65403  -0.50567
O          O       0.55585   0.27115   0.45784  -0.47261
O          O       0.71959   0.27537   0.38858  -0.47837
O          O       0.71743   0.42342   0.53460  -0.48013
O          O       0.43921   0.71117   0.53465  -0.47864
O          O       0.27765   0.71559   0.54039  -0.47313
O          O       0.28017   0.56282   0.43020  -0.47381

