data_crystal

_audit_creation_method 'AiiDA-DDEC plugin'

_cell_length_a        37.48455
_cell_length_b        37.19364
_cell_length_c         7.94895

_cell_angle_alpha     90.92671
_cell_angle_beta     89.07217
_cell_angle_gamma     120.02010

_symmetry_space_group_name_Hall 'P 1'
_symmetry_space_group_name_H-M  'P 1'

loop_
_symmetry_equiv_pos_as_xyz
 'x,y,z'

loop_
_atom_site_label
_atom_site_type_symbol
_atom_site_fract_x
_atom_site_fract_y
_atom_site_fract_z
_atom_site_charge
H          H       0.30162   0.59026   0.26705   0.09971
H          H       0.41035   0.71084   0.26754   0.09939
H          H       0.29060   0.69968   0.26046   0.09917
H          H       0.34318   0.57570   0.11705   0.10539
H          H       0.42604   0.76583   0.11830   0.10690
H          H       0.23526   0.65786   0.11271   0.10465
H          H       0.38594   0.54223   0.11933   0.10599
H          H       0.45877   0.84226   0.11304   0.10396
H          H       0.15939   0.61366   0.10902   0.10695
H          H       0.47751   0.64429   0.40913   0.11408
H          H       0.35411   0.83520   0.37224   0.11461
H          H       0.16792   0.52027   0.38769   0.11471
H          H       0.43319   0.67614   0.41945   0.10626
H          H       0.32253   0.75888   0.38980   0.10739
H          H       0.24359   0.56588   0.40349   0.10659
H          H       0.41123   0.51710   0.35127   0.06920
H          H       0.48097   0.89339   0.33963   0.06388
H          H       0.10826   0.58547   0.35453   0.06258
H          H       0.51906   0.58930   0.14079   0.27890
H          H       0.41231   0.92978   0.11992   0.27776
H          H       0.07296   0.47854   0.13420   0.27823
H          H       0.58690   0.60218   0.50772   0.09396
H          H       0.40023   0.98884   0.50449   0.09529
H          H       0.00731   0.40598   0.51705   0.09524
H          H       0.70203   0.41247   0.25814   0.10251
H          H       0.59343   0.29176   0.26854   0.10080
H          H       0.71315   0.30301   0.25759   0.10312
H          H       0.65866   0.42900   0.13848   0.10577
H          H       0.57570   0.23277   0.14291   0.10765
H          H       0.77159   0.34768   0.10387   0.10430
H          H       0.61490   0.46073   0.17326   0.12080
H          H       0.54149   0.15720   0.17703   0.12026
H          H       0.84663   0.39028   0.12632   0.12034
H          H       0.52662   0.35468   0.45406   0.11645
H          H       0.64618   0.17135   0.44766   0.11569
H          H       0.83270   0.47660   0.44862   0.11702
H          H       0.57101   0.32317   0.42340   0.10796
H          H       0.68033   0.24788   0.41791   0.10665
H          H       0.75657   0.43292   0.42914   0.10745
H          H       0.55859   0.46235   0.12788   0.07558
H          H       0.53349   0.09629   0.14199   0.07581
H          H       0.90709   0.42553   0.20243   0.07445
H          H       0.59840   0.07899   0.45118   0.13518
H          H       0.92860   0.51605   0.51668   0.13740
H          H       0.47537   0.39496   0.40425   0.13553
H          H       0.61510   0.04909   0.33366   0.12716
H          H       0.93928   0.54822   0.34409   0.13500
H          H       0.42521   0.38512   0.34904   0.12377
H          H       0.58941   0.04938   0.02849   0.13175
H          H       0.95691   0.54396   0.06762   0.12879
H          H       0.46227   0.40861   0.02379   0.13437
H          H       0.58410   0.97641   0.39012   0.13561
H          H       0.03225   0.60824   0.39304   0.13622
H          H       0.38440   0.45124   0.35526   0.12273
H          H       0.53959   0.92706   0.36931   0.12137
H          H       0.07609   0.60519   0.44803   0.12058
H          H       0.40712   0.46428   0.55716   0.12526
H          H       0.56194   0.97705   0.04295   0.13721
H          H       0.02540   0.58327   0.07839   0.13495
H          H       0.41383   0.43592   0.05096   0.13782
H          H       0.29896   0.58826   0.76638   0.09906
H          H       0.40689   0.70937   0.76394   0.09923
H          H       0.28671   0.69703   0.76218   0.10005
H          H       0.33945   0.57287   0.62299   0.10453
H          H       0.42044   0.76355   0.60565   0.10706
H          H       0.23117   0.65505   0.61793   0.10538
H          H       0.38295   0.54034   0.62207   0.10773
H          H       0.45382   0.84008   0.60420   0.10646
H          H       0.15540   0.61111   0.62125   0.10471
H          H       0.47674   0.64545   0.89064   0.11444
H          H       0.35327   0.83345   0.89540   0.11426
H          H       0.16524   0.51722   0.88991   0.11364
H          H       0.43218   0.67704   0.90206   0.10632
H          H       0.32108   0.75698   0.90673   0.10673
H          H       0.24089   0.56261   0.89982   0.10713
H          H       0.41140   0.51752   0.84661   0.06329
H          H       0.47966   0.89292   0.83212   0.06427
H          H       0.10460   0.58410   0.84280   0.06351
H          H       0.51665   0.59192   0.63119   0.27743
H          H       0.40776   0.92716   0.62303   0.27875
H          H       0.06923   0.47471   0.63996   0.27944
H          H       0.58721   0.59506   0.01520   0.09642
H          H       0.40694   0.99263  -0.00044   0.09618
H          H       0.01101   0.40847   0.01888   0.09455
H          H       0.70045   0.41085   0.74771   0.10184
H          H       0.59000   0.29188   0.76757   0.10227
H          H       0.70818   0.29941   0.74645   0.10135
H          H       0.65891   0.42777   0.61830   0.10724
H          H       0.57115   0.23150   0.63828   0.10447
H          H       0.76836   0.34116   0.61922   0.10518
H          H       0.61828   0.46288   0.64747   0.11941
H          H       0.53709   0.15553   0.66953   0.11934
H          H       0.84332   0.38264   0.65406   0.11884
H          H       0.52968   0.36292   0.95458   0.11667
H          H       0.64140   0.16952   0.94274   0.11757
H          H       0.82886   0.47438   0.93545   0.11859
H          H       0.57133   0.32797   0.92945   0.10586
H          H       0.67573   0.24608   0.91234   0.10551
H          H       0.75302   0.43175   0.90602   0.10903
H          H       0.56625   0.47190   0.62163   0.07662
H          H       0.53103   0.09582   0.62415   0.07426
H          H       0.90464   0.42986   0.65395   0.07373
H          H       0.60426   0.07931   0.84497   0.13756
H          H       0.91938   0.52043   0.90892   0.13485
H          H       0.47444   0.39436   0.82905   0.13816
H          H       0.60732   0.03283   0.85229   0.12122
H          H       0.96317   0.57108   0.87891   0.12286
H          H       0.42558   0.39114   0.86028   0.12002
H          H       0.59285   0.03254   0.53584   0.13008
H          H       0.97250   0.56674   0.52112   0.12621
H          H       0.44610   0.40623   0.54896   0.13333
H          H       0.57363   0.96290   0.84507   0.12837
H          H       0.03237   0.60736   0.88157   0.12951
H          H       0.38934   0.42246   0.85275   0.13060
H          H       0.52845   0.92761   0.95686   0.12046
H          H       0.07206   0.60073   0.96624   0.12066
H          H       0.39675   0.46766   0.96090   0.11991
H          H       0.54760   0.95657   0.55646   0.12804
H          H       0.03342   0.58593   0.58669   0.13089
H          H       0.39578   0.41678   0.46025   0.13788
C          C       0.29070   0.64187   0.26371   0.08038
C          C       0.35898   0.64822   0.26818   0.08035
C          C       0.35273   0.71066   0.26302   0.07971
C          C       0.31586   0.62390   0.26661  -0.18456
C          C       0.37695   0.69160   0.26672  -0.18884
C          C       0.30970   0.68532   0.26251  -0.18533
C          C       0.24535   0.61550   0.25966   0.04857
C          C       0.38472   0.62841   0.26897   0.04952
C          C       0.37201   0.75634   0.25713   0.05137
C          C       0.37182   0.59014   0.18704  -0.11981
C          C       0.41075   0.78080   0.18040  -0.12193
C          C       0.22065   0.62847   0.17916  -0.12079
C          C       0.39589   0.57128   0.18737  -0.18529
C          C       0.42925   0.82387   0.17653  -0.18324
C          C       0.17787   0.60359   0.17640  -0.18516
C          C       0.43443   0.59066   0.26676   0.20105
C          C       0.40916   0.84407   0.24639   0.20137
C          C       0.15834   0.56419   0.25138   0.20293
C          C       0.44806   0.62946   0.34509  -0.16804
C          C       0.36970   0.81975   0.31711  -0.16712
C          C       0.18292   0.55041   0.32715  -0.16839
C          C       0.42323   0.64742   0.34889  -0.12226
C          C       0.35203   0.77686   0.32552  -0.12130
C          C       0.22543   0.57604   0.33433  -0.12229
C          C       0.44326   0.53403   0.30628   0.09319
C          C       0.46540   0.90927   0.29058   0.09155
C          C       0.09288   0.55369   0.30415   0.09276
C          C       0.46563   0.51175   0.29588  -0.08578
C          C       0.48812   0.95399   0.28288  -0.08130
C          C       0.04833   0.53077   0.30246  -0.08083
C          C       0.44953   0.47072   0.35672   0.07020
C          C       0.52866   0.97899   0.34624   0.07061
C          C       0.02306   0.54611   0.37084   0.07119
C          C       0.47263   0.44993   0.34601   0.06510
C          C       0.54878   0.02304   0.34380   0.06621
C          C       0.97934   0.52229   0.36383   0.06979
C          C       0.56349   0.56863   0.08308   0.16593
C          C       0.43252   0.99530   0.07119   0.16572
C          C       0.00810   0.43199   0.09002   0.16489
C          C       0.71279   0.36071   0.25576   0.07861
C          C       0.64451   0.35440   0.26191   0.07901
C          C       0.65083   0.29189   0.26141   0.07940
C          C       0.68766   0.37881   0.25695  -0.18303
C          C       0.62676   0.31106   0.26263  -0.18196
C          C       0.69390   0.31722   0.25652  -0.18341
C          C       0.75815   0.38688   0.26484   0.05958
C          C       0.61800   0.37329   0.27592   0.05556
C          C       0.63100   0.24630   0.27537   0.05806
C          C       0.62981   0.41254   0.20875  -0.12115
C          C       0.59135   0.21962   0.21107  -0.12386
C          C       0.78469   0.37536   0.18348  -0.12391
C          C       0.60487   0.43031   0.22634  -0.16247
C          C       0.57213   0.17674   0.22840  -0.16096
C          C       0.82732   0.39961   0.19603  -0.16185
C          C       0.56673   0.40909   0.31188   0.19448
C          C       0.59234   0.15877   0.31073   0.19378
C          C       0.84524   0.43676   0.29174   0.19080
C          C       0.55521   0.37022   0.38193  -0.15267
C          C       0.63150   0.18537   0.37863  -0.14956
C          C       0.81873   0.44835   0.37249  -0.14736
C          C       0.58011   0.35261   0.36304  -0.13152
C          C       0.65057   0.22812   0.35997  -0.13144
C          C       0.77619   0.42397   0.35962  -0.13358
C          C       0.53877   0.45088   0.24037   0.10467
C          C       0.54765   0.08842   0.24429   0.10262
C          C       0.91496   0.45509   0.26489   0.09672
C          C       0.51218   0.46900   0.26670  -0.02305
C          C       0.53005   0.04370   0.26637  -0.02330
C          C       0.95914   0.48240   0.28445  -0.02203
C          C       0.52738   0.50914   0.19988   0.08797
C          C       0.49064   0.01867   0.19516   0.08695
C          C       0.98432   0.46732   0.21564   0.08411
C          C       0.50475   0.52985   0.21933   0.10265
C          C       0.47029   0.97519   0.20850   0.10137
C          C       0.02748   0.49108   0.22723   0.09870
C          C       0.59107   0.04728   0.42064  -0.43333
C          C       0.95409   0.53961   0.44152  -0.43180
C          C       0.45379   0.40654   0.41498  -0.43183
C          C       0.55103   0.95856   0.41871  -0.42362
C          C       0.04244   0.58857   0.45329  -0.42491
C          C       0.40701   0.44957   0.43602  -0.42561
C          C       0.28737   0.63942   0.76311   0.07979
C          C       0.35595   0.64653   0.76496   0.07967
C          C       0.34903   0.70854   0.76215   0.07922
C          C       0.31288   0.62185   0.76502  -0.18636
C          C       0.37354   0.68983   0.76378  -0.18429
C          C       0.30602   0.68289   0.76254  -0.18572
C          C       0.24204   0.61268   0.76122   0.05072
C          C       0.38212   0.62726   0.76429   0.04951
C          C       0.36846   0.75426   0.75852   0.05086
C          C       0.36881   0.58830   0.68783  -0.11844
C          C       0.40628   0.77869   0.67513  -0.12362
C          C       0.21693   0.62562   0.68395  -0.11944
C          C       0.39327   0.56989   0.68667  -0.18556
C          C       0.42510   0.82182   0.67336  -0.18305
C          C       0.17417   0.60076   0.68446  -0.18394
C          C       0.43257   0.59043   0.75954   0.20085
C          C       0.40629   0.84219   0.75309   0.20054
C          C       0.15491   0.56125   0.75848   0.20083
C          C       0.44659   0.62988   0.83218  -0.16742
C          C       0.36781   0.81791   0.83201  -0.16837
C          C       0.17991   0.54745   0.83022  -0.16520
C          C       0.42149   0.64748   0.83715  -0.12077
C          C       0.34975   0.77491   0.83696  -0.12391
C          C       0.22246   0.57303   0.83446  -0.12300
C          C       0.44325   0.53493   0.79993   0.08995
C          C       0.46281   0.90812   0.78957   0.09493
C          C       0.08948   0.55141   0.80354   0.09415
C          C       0.46673   0.51384   0.78774  -0.08548
C          C       0.48485   0.95294   0.77912  -0.08509
C          C       0.04498   0.52838   0.80078  -0.07910
C          C       0.45251   0.47293   0.84642   0.07430
C          C       0.52538   0.97882   0.84065   0.07101
C          C       0.01981   0.54392   0.86695   0.07088
C          C       0.47674   0.45348   0.82732   0.06826
C          C       0.54575   0.02276   0.82625   0.07219
C          C       0.97612   0.52073   0.85625   0.07732
C          C       0.56394   0.57494   0.57393   0.16121
C          C       0.42678   0.99217   0.57076   0.16094
C          C       0.00451   0.42969   0.58720   0.16360
C          C       0.70962   0.35804   0.74684   0.07834
C          C       0.64236   0.35381   0.75483   0.07838
C          C       0.64660   0.29016   0.75548   0.07949
C          C       0.68546   0.37714   0.74761  -0.18307
C          C       0.62339   0.31033   0.75848  -0.18273
C          C       0.68972   0.31452   0.74727  -0.18143
C          C       0.75486   0.38353   0.75757   0.05890
C          C       0.61767   0.37464   0.76798   0.05655
C          C       0.62640   0.24456   0.76976   0.05760
C          C       0.63066   0.41342   0.69310  -0.12580
C          C       0.58680   0.21809   0.70489  -0.12214
C          C       0.78136   0.37025   0.68968  -0.12127
C          C       0.60742   0.43306   0.70774  -0.16007
C          C       0.56772   0.17518   0.72074  -0.16386
C          C       0.82387   0.39401   0.70751  -0.16333
C          C       0.56993   0.41423   0.79880   0.19350
C          C       0.58786   0.15712   0.80295   0.19553
C          C       0.84158   0.43250   0.79352   0.19292
C          C       0.55760   0.37615   0.87799  -0.15086
C          C       0.62690   0.18354   0.87231  -0.15126
C          C       0.81512   0.44561   0.86268  -0.14694
C          C       0.58077   0.35659   0.86185  -0.12900
C          C       0.64598   0.22631   0.85415  -0.12998
C          C       0.77275   0.42173   0.84464  -0.13202
C          C       0.54428   0.45814   0.72640   0.10191
C          C       0.54374   0.08728   0.72969   0.10463
C          C       0.91177   0.45456   0.74747   0.09997
C          C       0.51646   0.47461   0.75052  -0.01615
C          C       0.52605   0.04258   0.75095  -0.01551
C          C       0.95587   0.48108   0.77577  -0.02299
C          C       0.53013   0.51484   0.68763   0.08322
C          C       0.48611   0.01683   0.68565   0.08299
C          C       0.98100   0.46571   0.70906   0.08515
C          C       0.50572   0.53354   0.70857   0.09713
C          C       0.46643   0.97341   0.70236   0.09756
C          C       0.02410   0.48874   0.72522   0.09651
C          C       0.58920   0.04743   0.89012  -0.42699
C          C       0.95236   0.54006   0.93071  -0.42759
C          C       0.45863   0.40942   0.88703  -0.42735
C          C       0.54822   0.96033   0.92517  -0.42273
C          C       0.03870   0.58595   0.95194  -0.42387
C          C       0.41095   0.44877   0.93179  -0.42237
N          N       0.45992   0.57303   0.26594  -0.31308
N          N       0.42702   0.88740   0.24475  -0.31257
N          N       0.11532   0.53798   0.25101  -0.31194
N          N       0.52843   0.56789   0.14506  -0.28034
N          N       0.43308   0.96078   0.12988  -0.28056
N          N       0.04213   0.46785   0.14737  -0.28241
N          N       0.56417   0.53422   0.11475  -0.36168
N          N       0.46624   0.03051   0.10897  -0.36365
N          N       0.97295   0.43040   0.12924  -0.36613
N          N       0.53949   0.42419   0.34059  -0.27693
N          N       0.57683   0.11632   0.33650  -0.27551
N          N       0.88740   0.46431   0.31535  -0.27728
N          N       0.45872   0.57363   0.75729  -0.31048
N          N       0.42401   0.88557   0.75109  -0.31298
N          N       0.11195   0.53494   0.76111  -0.31561
N          N       0.52786   0.57196   0.63536  -0.28034
N          N       0.42853   0.95822   0.62852  -0.28075
N          N       0.03856   0.46512   0.64738  -0.28021
N          N       0.56663   0.54153   0.60397  -0.36327
N          N       0.46052   0.02780   0.60370  -0.36435
N          N       0.96951   0.42877   0.62253  -0.36673
N          N       0.54328   0.43008   0.82367  -0.27914
N          N       0.57180   0.11451   0.82773  -0.27634
N          N       0.88350   0.45901   0.82455  -0.27068

