data_crystal

_audit_creation_method 'AiiDA-DDEC plugin'

_cell_length_a        33.34319
_cell_length_b        33.25684
_cell_length_c         8.09023

_cell_angle_alpha     65.07128
_cell_angle_beta     120.43022
_cell_angle_gamma     119.99089

_symmetry_space_group_name_Hall 'P 1'
_symmetry_space_group_name_H-M  'P 1'

loop_
_symmetry_equiv_pos_as_xyz
 'x,y,z'

loop_
_atom_site_label
_atom_site_type_symbol
_atom_site_fract_x
_atom_site_fract_y
_atom_site_fract_z
_atom_site_charge
H          H       0.43825   0.66436   0.01126   0.06285
H          H       0.34911   0.77213   0.07637   0.07205
H          H       0.22304   0.57133   0.93374   0.06948
H          H       0.56826   0.34504   0.98618   0.06298
H          H       0.65695   0.23382   0.93837   0.06731
H          H       0.78509   0.43195   0.07920   0.06879
H          H       0.47648   0.64991   0.92228   0.10875
H          H       0.35607   0.84373   0.97453   0.11339
H          H       0.16483   0.51692   0.01942   0.11417
H          H       0.52958   0.36007   0.06894   0.10936
H          H       0.64360   0.16304  -0.00007   0.11346
H          H       0.84180   0.48497   0.98189   0.11270
H          H       0.42033   0.72605   0.00723   0.11275
H          H       0.27967   0.69545   0.01685   0.11349
H          H       0.30431   0.58736   0.95854   0.11456
H          H       0.58435   0.28206   0.99450   0.11331
H          H       0.72438   0.30828   0.99223   0.11173
H          H       0.70363   0.41898   0.04999   0.11374
H          H       0.36870   0.50872   0.02508   0.11923
H          H       0.49379   0.85994   0.98577   0.11862
H          H       0.14729   0.63654   0.02015   0.12092
H          H       0.64133   0.50004   0.99182   0.11747
H          H       0.50663   0.14818   0.99013   0.11865
H          H       0.85736   0.36261  -0.00384   0.12101
H          H       0.53040   0.61524   0.94219   0.11545
H          H       0.39105   0.92969   0.97624   0.11732
H          H       0.07824   0.46616   0.00860   0.12124
H          H       0.47713   0.39556   0.05431   0.11509
H          H       0.60761   0.07723   0.99567   0.11620
H          H       0.92852   0.53428   0.99217   0.11898
H          H       0.42340   0.47425   0.04286   0.11371
H          H       0.52843   0.94690   0.98648   0.11876
H          H       0.06012   0.58459   0.01252   0.11484
H          H       0.58763   0.53540   0.97636   0.11196
H          H       0.47087   0.06133   0.98790   0.11945
H          H       0.94498   0.41289   0.00534   0.11508
H          H       0.43198   0.65477   0.51100   0.06125
H          H       0.34787   0.76689   0.57694   0.07072
H          H       0.21790   0.56678   0.44256   0.06798
H          H       0.56111   0.33558   0.48185   0.06494
H          H       0.66051   0.22702   0.47501   0.06707
H          H       0.77720   0.42925   0.57166   0.07231
H          H       0.46748   0.63933   0.41179   0.10818
H          H       0.35588   0.83787   0.48514   0.11383
H          H       0.15590   0.51637   0.49249   0.11314
H          H       0.52150   0.34943   0.56642   0.10991
H          H       0.64116   0.15819   0.48078   0.11268
H          H       0.83828   0.48238   0.50865   0.11062
H          H       0.41626   0.71794   0.50329   0.11061
H          H       0.27741   0.69203   0.51583   0.11409
H          H       0.29746   0.58056   0.46060   0.11429
H          H       0.57978   0.27386   0.48790   0.11252
H          H       0.72347   0.30410   0.50658   0.11109
H          H       0.69539   0.41258   0.54423   0.11378
H          H       0.36266   0.49863   0.54570   0.11718
H          H       0.49060   0.85410   0.47099   0.11843
H          H       0.14640   0.63520   0.53997   0.12096
H          H       0.63341   0.48972   0.49965   0.11976
H          H       0.50622   0.14121   0.49629   0.11776
H          H       0.85268   0.36412   0.47978   0.12073
H          H       0.52088   0.60376   0.43279   0.11477
H          H       0.39194   0.92350   0.49143   0.11622
H          H       0.06953   0.46725   0.48548   0.11906
H          H       0.46830   0.38408   0.55241   0.11443
H          H       0.60642   0.07235   0.48322   0.11584
H          H       0.92419   0.53308   0.51449   0.12072
H          H       0.41701   0.46326   0.56618   0.11408
H          H       0.52625   0.94092   0.47388   0.12009
H          H       0.05891   0.58490   0.53326   0.11390
H          H       0.57926   0.52423   0.48664   0.11555
H          H       0.47128   0.05423   0.49699   0.11922
H          H       0.93969   0.41619   0.48348   0.11364
C          C       0.31692   0.62339   0.97212  -0.12135
C          C       0.38289   0.70101   0.00081  -0.15688
C          C       0.30388   0.68486   0.00406  -0.13872
C          C       0.68995   0.38282   0.03537  -0.12266
C          C       0.62218   0.30620   0.00297  -0.14783
C          C       0.70078   0.31996   0.00345  -0.13929
C          C       0.39975   0.63844   0.98661   0.07780
C          C       0.36954   0.76556   0.02416   0.07722
C          C       0.23585   0.60442   0.97588   0.08995
C          C       0.60718   0.37015   0.01569   0.08152
C          C       0.63384   0.24083   0.97540   0.07861
C          C       0.77073   0.39877   0.03490   0.08808
C          C       0.41883   0.58115   0.97497   0.21140
C          C       0.42346   0.84577   0.98557   0.20830
C          C       0.16145   0.58097   0.01494   0.20334
C          C       0.58920   0.42812   0.02886   0.21512
C          C       0.57671   0.16168   0.99106   0.20844
C          C       0.84425   0.41964   0.99475   0.20369
C          C       0.46477   0.61147   0.95082  -0.17755
C          C       0.39399   0.86573   0.97983  -0.16757
C          C       0.14214   0.53226   0.01561  -0.17848
C          C       0.54243   0.39846   0.04648  -0.17271
C          C       0.60564   0.14139   0.99485  -0.17085
C          C       0.86418   0.46868   0.98973  -0.17370
C          C       0.49501   0.59247   0.96149  -0.13538
C          C       0.41299   0.91367   0.97894  -0.13243
C          C       0.09392   0.50363   0.01056  -0.13041
C          C       0.51299   0.41790   0.03870  -0.12885
C          C       0.58602   0.09352   0.99391  -0.13060
C          C       0.91246   0.49648   0.99462  -0.12714
C          C       0.48018   0.54286   0.99407   0.16398
C          C       0.46173   0.94304   0.98296   0.15860
C          C       0.06380   0.52238   0.00709   0.15862
C          C       0.52918   0.46738   0.01417   0.16031
C          C       0.53722   0.06439   0.99024   0.15993
C          C       0.94213   0.47650   0.00258   0.15931
C          C       0.43423   0.51242   0.01724  -0.12459
C          C       0.49130   0.92344   0.98742  -0.13547
C          C       0.08324   0.57077   0.01048  -0.13069
C          C       0.57578   0.49729  -0.00391  -0.12785
C          C       0.50811   0.08433   0.98693  -0.13616
C          C       0.92216   0.42775   0.00349  -0.13036
C          C       0.40419   0.53147   0.00665  -0.13415
C          C       0.47216   0.87566   0.98718  -0.14115
C          C       0.13128   0.59926   0.01515  -0.14085
C          C       0.60521   0.47774   0.00509  -0.13793
C          C       0.52786   0.13213   0.98805  -0.14174
C          C       0.87390   0.40014  -0.00185  -0.14168
C          C       0.36597   0.65444   0.98467   0.06185
C          C       0.35181   0.71670   0.00859   0.05326
C          C       0.28588   0.63814   0.98274   0.06100
C          C       0.64047   0.35292   0.02081   0.06714
C          C       0.65231   0.28934   0.99527   0.05409
C          C       0.72016   0.36672   0.02614   0.06011
C          C       0.31120   0.61696   0.47270  -0.12616
C          C       0.37860   0.69387   0.49754  -0.14900
C          C       0.30071   0.68030   0.50290  -0.13911
C          C       0.68332   0.37654   0.53203  -0.12175
C          C       0.61752   0.29890   0.49897  -0.15263
C          C       0.69821   0.31488   0.51133  -0.13947
C          C       0.39325   0.62945   0.48638   0.08133
C          C       0.36764   0.75993   0.52288   0.07792
C          C       0.23113   0.60080   0.47846   0.08629
C          C       0.59984   0.36117   0.51157   0.07695
C          C       0.63362   0.23446   0.48737   0.07799
C          C       0.76528   0.39563   0.53556   0.08792
C          C       0.41134   0.57094   0.47908   0.21607
C          C       0.42180   0.83991   0.48343   0.20702
C          C       0.15680   0.57996   0.51311   0.20181
C          C       0.58110   0.41784   0.53038   0.21219
C          C       0.57554   0.15563   0.48808   0.20497
C          C       0.84012   0.41883   0.49977   0.20240
C          C       0.45648   0.60084   0.44806  -0.17255
C          C       0.39340   0.85980   0.48564  -0.16844
C          C       0.13519   0.53190   0.50096  -0.17316
C          C       0.53422   0.38772   0.54652  -0.17885
C          C       0.60412   0.13599   0.48527  -0.16574
C          C       0.86010   0.46720   0.50533  -0.17480
C          C       0.48631   0.58140   0.45889  -0.12821
C          C       0.41302   0.90763   0.48719  -0.13134
C          C       0.08704   0.50415   0.49752  -0.12716
C          C       0.50440   0.40672   0.53919  -0.13494
C          C       0.58505   0.08804   0.48668  -0.13320
C          C       0.90810   0.49588   0.50802  -0.13023
C          C       0.47190   0.53167   0.49909   0.15922
C          C       0.46122   0.93704   0.48471   0.15852
C          C       0.05897   0.52319   0.50657   0.15824
C          C       0.52047   0.45607   0.51747   0.16286
C          C       0.53694   0.05832   0.49007   0.16104
C          C       0.93742   0.47753   0.50324   0.15742
C          C       0.42712   0.50154   0.53200  -0.12966
C          C       0.48960   0.91753   0.48029  -0.13718
C          C       0.08050   0.57090   0.52196  -0.13210
C          C       0.56741   0.48627   0.50297  -0.12587
C          C       0.50805   0.07766   0.49190  -0.13672
C          C       0.91720   0.42962   0.49216  -0.13165
C          C       0.39731   0.52105   0.52025  -0.13943
C          C       0.46991   0.86979   0.47869  -0.14389
C          C       0.12868   0.59846   0.52592  -0.14215
C          C       0.59708   0.46722   0.51072  -0.13600
C          C       0.52735   0.12549   0.49149  -0.13799
C          C       0.86936   0.40108   0.49002  -0.14362
C          C       0.36031   0.64689   0.48259   0.06613
C          C       0.34884   0.71098   0.50638   0.05224
C          C       0.28131   0.63325   0.48310   0.06462
C          C       0.63401   0.34534   0.51545   0.06356
C          C       0.64977   0.28315   0.49954   0.05206
C          C       0.71529   0.36182   0.52783   0.05949
N          N       0.38545   0.59611   0.96782  -0.29086
N          N       0.40742   0.79847   0.97929  -0.29343
N          N       0.20902   0.61364   0.01732  -0.30189
N          N       0.62221   0.41246   0.03677  -0.29502
N          N       0.59307   0.20882   0.00037  -0.29332
N          N       0.79639   0.38809   0.99266  -0.29987
N          N       0.51325   0.52767  -0.00152  -0.15220
N          N       0.47670   0.99103   0.97983  -0.14028
N          N       0.01608   0.48989   0.00682  -0.14586
N          N       0.49644   0.48283   0.01044  -0.14159
N          N       0.52200   0.01641   0.99273  -0.14396
N          N       0.98989   0.50854   0.00275  -0.14318
N          N       0.37834   0.58671   0.47027  -0.29303
N          N       0.40528   0.79259   0.47591  -0.29373
N          N       0.20469   0.61179   0.51510  -0.30399
N          N       0.61439   0.40297   0.53619  -0.29130
N          N       0.59077   0.20286   0.49323  -0.29627
N          N       0.79272   0.38597   0.49923  -0.30329
N          N       0.50443   0.51617   0.50181  -0.14187
N          N       0.47678   0.98491   0.48417  -0.13950
N          N       0.01093   0.49139   0.50377  -0.14233
N          N       0.48757   0.47130   0.51433  -0.15141
N          N       0.52165   0.01039   0.49161  -0.14230
N          N       0.98533   0.50986   0.50514  -0.14165

