data_crystal

_audit_creation_method 'AiiDA-DDEC plugin'

_cell_length_a        32.51367
_cell_length_b        32.29311
_cell_length_c         7.99174

_cell_angle_alpha     106.00777
_cell_angle_beta     108.16509
_cell_angle_gamma     119.19310

_symmetry_space_group_name_Hall 'P 1'
_symmetry_space_group_name_H-M  'P 1'

loop_
_symmetry_equiv_pos_as_xyz
 'x,y,z'

loop_
_atom_site_label
_atom_site_type_symbol
_atom_site_fract_x
_atom_site_fract_y
_atom_site_fract_z
_atom_site_charge
H          H       0.66617   0.52988   0.15185   0.13023
H          H       0.48071   0.12954   0.03903   0.13020
H          H       0.87307   0.34460   0.02926   0.12505
H          H       0.37754   0.49590   0.15065   0.12570
H          H       0.53256   0.88891   0.19762   0.12510
H          H       0.15075   0.65612   0.20115   0.13728
H          H       0.33537   0.47190   0.37686   0.13105
H          H       0.51895   0.87083   0.46198   0.13016
H          H       0.12583   0.65408   0.46117   0.12423
H          H       0.62453   0.50655   0.37860   0.12595
H          H       0.46666   0.11115   0.29871   0.12514
H          H       0.84880   0.34442   0.29260   0.13602
H          H       0.72241   0.41759   0.20008   0.09934
H          H       0.56929   0.27432   0.94201   0.11248
H          H       0.71826   0.30278   0.15113   0.11505
H          H       0.28362   0.57122   0.00439   0.11889
H          H       0.42179   0.72001   0.21379   0.11857
H          H       0.30000   0.71312   0.11798   0.08989
H          H       0.27708   0.58317   0.28629   0.09856
H          H       0.42456   0.71966   0.51529   0.11277
H          H       0.28031   0.69684   0.34581   0.11492
H          H       0.71321   0.42600   0.47857   0.11890
H          H       0.58110   0.28010   0.25793   0.12032
H          H       0.69999   0.28688   0.37583   0.08836
H          H       0.51635   0.60456   0.04804   0.13142
H          H       0.38122   0.89486   0.93502   0.12949
H          H       0.07334   0.46955   0.92957   0.12765
H          H       0.47965   0.38679   0.96472   0.12818
H          H       0.60246   0.08716   0.06228   0.12991
H          H       0.91081   0.51231   0.04406   0.12571
H          H       0.40784   0.44616   0.97367   0.10936
H          H       0.54312   0.95382   0.05360   0.10844
H          H       0.04261   0.58626   0.03264   0.10959
H          H       0.59343   0.54493   0.04773   0.11197
H          H       0.44001   0.02854   0.93468   0.10851
H          H       0.94778   0.40035   0.96293   0.10768
H          H       0.66867   0.54291   0.64529   0.12935
H          H       0.50036   0.14937   0.56619   0.13289
H          H       0.88467   0.36307   0.54975   0.12922
H          H       0.37630   0.50838   0.64477   0.12818
H          H       0.54637   0.90964   0.72409   0.13150
H          H       0.16112   0.67075   0.71533   0.13697
H          H       0.33320   0.45877   0.88370   0.12989
H          H       0.49961   0.85113   0.92986   0.13291
H          H       0.11391   0.63586   0.94232   0.12961
H          H       0.62543   0.49446   0.88410   0.12850
H          H       0.45190   0.09069   0.77568   0.13198
H          H       0.83815   0.32931   0.77717   0.13689
H          H       0.73074   0.43040   0.71612   0.10070
H          H       0.58774   0.29711   0.49686   0.11252
H          H       0.72952   0.32011   0.63951   0.11582
H          H       0.29609   0.59364   0.53161   0.11624
H          H       0.42509   0.73474   0.74470   0.11900
H          H       0.30966   0.73019   0.61049   0.08935
H          H       0.26896   0.57084   0.77387   0.10089
H          H       0.40432   0.69499   0.95915   0.11299
H          H       0.26952   0.67910   0.85373   0.11560
H          H       0.70071   0.40275   0.94860   0.11658
H          H       0.57895   0.26658   0.73383   0.11929
H          H       0.69060   0.26936   0.88713   0.08940
H          H       0.52205   0.61441   0.56240   0.13069
H          H       0.39645   0.91317   0.43726   0.12988
H          H       0.08891   0.48761   0.45465   0.12487
H          H       0.48527   0.39662   0.47769   0.13045
H          H       0.61830   0.10527   0.56470   0.12840
H          H       0.92710   0.53107   0.57274   0.12904
H          H       0.40787   0.45683   0.48260   0.11187
H          H       0.55870   0.97145   0.56279   0.10805
H          H       0.05184   0.59955   0.53305   0.10764
H          H       0.59433   0.55595   0.55838   0.10884
H          H       0.45616   0.04653   0.44406   0.10709
H          H       0.95692   0.41367   0.46369   0.10924
C          C       0.29314   0.59908   0.94304  -0.22836
C          C       0.38559   0.69139   0.05351  -0.22915
C          C       0.29801   0.68487   0.99409  -0.24108
C          C       0.69564   0.38243   0.03960  -0.22972
C          C       0.60172   0.28837   0.90476  -0.23485
C          C       0.69091   0.29686   0.00677  -0.24003
C          C       0.37949   0.61038   0.02717   0.05197
C          C       0.37838   0.76136   0.01809   0.05583
C          C       0.22297   0.60593   0.97846   0.05635
C          C       0.61293   0.37476   0.98721   0.05448
C          C       0.60782   0.22087   0.97526   0.05455
C          C       0.76653   0.37591   0.02053   0.05361
C          C       0.39016   0.54674   0.01903   0.22356
C          C       0.44379   0.83576   0.03379   0.23364
C          C       0.15403   0.60068   0.00220   0.24482
C          C       0.60698   0.44173   0.00689   0.22915
C          C       0.54066   0.14648   0.95490   0.23917
C          C       0.83473   0.38239   0.98628   0.23626
C          C       0.44278   0.58701   0.04507  -0.02965
C          C       0.40316   0.84497  -0.00415  -0.03594
C          C       0.13488   0.54592   0.96266  -0.02976
C          C       0.55290   0.40193   0.97217  -0.02761
C          C       0.58152   0.13751   0.00151  -0.03603
C          C       0.85134   0.43593   0.01704  -0.02223
C          C       0.47821   0.57604   0.03862  -0.20519
C          C       0.41175   0.88822   0.97067  -0.21405
C          C       0.08773   0.51032   0.95609  -0.19446
C          C       0.51864   0.41462   0.97768  -0.20123
C          C       0.57190   0.09376   0.02374  -0.19212
C          C       0.89766   0.47208   0.02035  -0.20948
C          C       0.46399   0.52376   0.01302   0.13967
C          C       0.46432   0.92799  -0.00247   0.14655
C          C       0.05511   0.52675   0.98550   0.14111
C          C       0.53497   0.46763   0.00551   0.13891
C          C       0.51896   0.05384   0.99433   0.14394
C          C       0.93181   0.45717  -0.00267   0.14811
C          C       0.41630   0.48476   0.99412  -0.13806
C          C       0.50517   0.92308   0.03991  -0.14240
C          C       0.06994   0.57710   0.02043  -0.11997
C          C       0.58362   0.50586   0.02735  -0.14343
C          C       0.47822   0.05888   0.94860  -0.13885
C          C       0.91893   0.40781   0.96847  -0.13696
C          C       0.37663   0.49419   0.00875  -0.21163
C          C       0.49766   0.87480   0.05295  -0.21513
C          C       0.12250   0.61989   0.04250  -0.22116
C          C       0.62322   0.49536   0.02067  -0.21423
C          C       0.48565   0.10636   0.92732  -0.21172
C          C       0.86601   0.36357   0.93997  -0.21532
C          C       0.35375   0.63347   0.01407   0.06958
C          C       0.35401   0.71316   0.01976   0.08483
C          C       0.27142   0.62993   0.98153   0.06819
C          C       0.63614   0.34921   0.98281   0.07533
C          C       0.63336   0.26823   0.96880   0.08043
C          C       0.71816   0.35171   0.01857   0.06963
C          C       0.30303   0.61648   0.44992  -0.23179
C          C       0.39682   0.70977   0.57472  -0.23664
C          C       0.30822   0.70233   0.48763  -0.23779
C          C       0.70558   0.40015   0.54857  -0.22820
C          C       0.61254   0.30610   0.42520  -0.22953
C          C       0.70137   0.31460   0.49915  -0.24036
C          C       0.38731   0.62550   0.52347   0.05127
C          C       0.39054   0.77828   0.51634   0.05380
C          C       0.23275   0.62336   0.47442   0.05120
C          C       0.62070   0.38985   0.48541   0.05545
C          C       0.62092   0.23786   0.47411   0.05640
C          C       0.77643   0.39396   0.51708   0.05426
C          C       0.39433   0.55976   0.51640   0.22531
C          C       0.45782   0.85323   0.53998   0.23434
C          C       0.16470   0.61714   0.50908   0.23828
C          C       0.61126   0.45472   0.50566   0.22511
C          C       0.55547   0.16371   0.45967   0.23345
C          C       0.84548   0.39931   0.49396   0.24558
C          C       0.44836   0.59926   0.55013  -0.02603
C          C       0.41719   0.86250   0.49603  -0.03602
C          C       0.14803   0.56361   0.47872  -0.02387
C          C       0.55854   0.41420   0.47835  -0.02629
C          C       0.59636   0.15483   0.50088  -0.03421
C          C       0.86489   0.45426   0.53535  -0.02747
C          C       0.48297   0.58674   0.54922  -0.20639
C          C       0.42693   0.90645   0.47505  -0.19144
C          C       0.10194   0.52771   0.47705  -0.20766
C          C       0.52348   0.42541   0.48809  -0.20557
C          C       0.58769   0.11180   0.52775  -0.21179
C          C       0.91246   0.49014   0.54463  -0.19736
C          C       0.46675   0.53395   0.52413   0.14354
C          C       0.47986   0.94628   0.50410   0.14241
C          C       0.06793   0.54280   0.50042   0.14647
C          C       0.53798   0.47800   0.51674   0.13868
C          C       0.53498   0.07214   0.50072   0.14419
C          C       0.94501   0.47363   0.51473   0.13872
C          C       0.41799   0.49595   0.50257  -0.14410
C          C       0.52050   0.94110   0.54884  -0.13839
C          C       0.08061   0.59198   0.52734  -0.13857
C          C       0.58569   0.51718   0.53603  -0.13871
C          C       0.49413   0.07705   0.45711  -0.13994
C          C       0.92982   0.42304   0.47748  -0.11778
C          C       0.37837   0.50665   0.50729  -0.21470
C          C       0.51312   0.89371   0.57056  -0.21111
C          C       0.13328   0.63594   0.55362  -0.21280
C          C       0.62521   0.50772   0.51973  -0.21252
C          C       0.50176   0.12519   0.44243  -0.21475
C          C       0.87688   0.38002   0.45265  -0.21982
C          C       0.36303   0.65002   0.51348   0.07733
C          C       0.36511   0.73044   0.51984   0.08253
C          C       0.28093   0.64744   0.47522   0.07345
C          C       0.64541   0.36573   0.48432   0.06756
C          C       0.64501   0.28566   0.46996   0.08207
C          C       0.72782   0.36970   0.51307   0.06956
S          S       0.44757   0.64444   0.06458   0.03327
S          S       0.34564   0.79228   0.97886   0.06716
S          S       0.18106   0.53676   0.93034   0.03493
S          S       0.54408   0.34205   0.93992   0.03254
S          S       0.64055   0.19048   0.02632   0.05877
S          S       0.80531   0.44402   0.05610   0.04286
S          S       0.45644   0.65834   0.57347   0.03411
S          S       0.35819   0.80931   0.47077   0.05693
S          S       0.19379   0.55523   0.43857   0.04320
S          S       0.55293   0.35591   0.45029   0.03048
S          S       0.65409   0.20756   0.51846   0.06761
S          S       0.81842   0.46319   0.56606   0.03543
N          N       0.35664   0.55889   0.00542  -0.32535
N          N       0.43035   0.79163   0.04531  -0.32856
N          N       0.19996   0.63174   0.00757  -0.32818
N          N       0.63908   0.42781   0.02203  -0.32391
N          N       0.55474   0.19036   0.94097  -0.33882
N          N       0.79089   0.35163   0.99286  -0.33303
N          N       0.50235   0.51577  -0.00276  -0.11823
N          N       0.46718   0.96937   0.95832  -0.11712
N          N       0.00471   0.48397   0.95595  -0.12713
N          N       0.49732   0.47664   0.02134  -0.11845
N          N       0.51616   0.01263   0.03473  -0.11789
N          N       0.98187   0.50024   0.02600  -0.12147
N          N       0.36185   0.57330   0.49664  -0.32183
N          N       0.44345   0.80878   0.54971  -0.33331
N          N       0.20862   0.64785   0.50284  -0.33386
N          N       0.64432   0.44215   0.51478  -0.32757
N          N       0.56866   0.20733   0.44467  -0.32938
N          N       0.79943   0.36816   0.48776  -0.32876
N          N       0.50418   0.52466   0.50757  -0.11848
N          N       0.48287   0.98758   0.46385  -0.11985
N          N       0.01811   0.49996   0.47361  -0.12097
N          N       0.49988   0.48615   0.53489  -0.11804
N          N       0.53194   0.03084   0.54107  -0.11553
N          N       0.99545   0.51639   0.54427  -0.12518

