data_crystal

_audit_creation_method 'AiiDA-DDEC plugin'

_cell_length_a        49.59199
_cell_length_b        49.71622
_cell_length_c         5.83106

_cell_angle_alpha     89.12895
_cell_angle_beta     90.69369
_cell_angle_gamma     120.06004

_symmetry_space_group_name_Hall 'P 1'
_symmetry_space_group_name_H-M  'P 1'

loop_
_symmetry_equiv_pos_as_xyz
 'x,y,z'

loop_
_atom_site_label
_atom_site_type_symbol
_atom_site_fract_x
_atom_site_fract_y
_atom_site_fract_z
_atom_site_charge
H          H       0.56982   0.51579   0.46292   0.09500
H          H       0.48283   0.05223   0.46838   0.11990
H          H       0.94778   0.43018   0.56121   0.10961
H          H       0.52458   0.52509   0.46989   0.09173
H          H       0.47277   0.99715   0.50361   0.11157
H          H       0.00292   0.47719   0.51858   0.08763
H          H       0.46100   0.42942   0.49828   0.12492
H          H       0.57138   0.03291   0.46530   0.11266
H          H       0.96720   0.53896   0.50416   0.11923
H          H       0.50366   0.41828   0.51303   0.10551
H          H       0.58127   0.08621   0.54382   0.07686
H          H       0.91205   0.49431   0.54301   0.10325
H          H       0.47902   0.56812   0.48396   0.15921
H          H       0.44509   0.91934   0.52380   0.16422
H          H       0.08687   0.51950   0.47534   0.17175
H          H       0.45716   0.59138   0.51380   0.04844
H          H       0.41258   0.87154   0.53819   0.05718
H          H       0.13403   0.54122   0.44657   0.05126
H          H       0.53916   0.41255   0.50340   0.05043
H          H       0.58706   0.12614   0.52961   0.04720
H          H       0.87358   0.45969   0.46786   0.04822
H          H       0.55944   0.37915   0.48976   0.09940
H          H       0.62030   0.17885   0.52714   0.09868
H          H       0.82229   0.44214   0.48932   0.10275
H          H       0.60417   0.36847   0.45777   0.11706
H          H       0.63211   0.23508   0.53287   0.14337
H          H       0.76503   0.39913   0.49966   0.13501
H          H       0.66817   0.46365   0.57205   0.10938
H          H       0.53475   0.20221   0.46198   0.10966
H          H       0.79439   0.33198   0.53300   0.10559
H          H       0.62635   0.47529   0.51590   0.09447
H          H       0.52429   0.14791   0.47370   0.09326
H          H       0.85125   0.37559   0.51480   0.09255
H          H       0.43490   0.62213   0.50332   0.10901
H          H       0.37641   0.81499   0.50565   0.10440
H          H       0.19010   0.56518   0.52420   0.08553
H          H       0.39025   0.63240   0.50713   0.13566
H          H       0.36424   0.76000   0.47673   0.13546
H          H       0.24366   0.60921   0.55936   0.11706
H          H       0.32669   0.53270   0.44811   0.10710
H          H       0.46308   0.79381   0.48081   0.11210
H          H       0.20712   0.67076   0.46316   0.12428
H          H       0.37105   0.52405   0.49392   0.10405
H          H       0.47360   0.84791   0.47039   0.09743
H          H       0.15188   0.62526   0.47167   0.12878
H          H       0.56897   0.51733   0.02442   0.09410
H          H       0.48356   0.05356   0.01085   0.12442
H          H       0.94838   0.43094   0.97215   0.11060
H          H       0.52438   0.52490   0.01997   0.08912
H          H       0.47146   0.99856   0.97522   0.10935
H          H       0.00367   0.47683   0.98292   0.08923
H          H       0.46234   0.42876   0.96977   0.11698
H          H       0.56961   0.03056   0.01285   0.10837
H          H       0.96868   0.53919   0.98672   0.12087
H          H       0.50557   0.41863   0.98647   0.10524
H          H       0.58196   0.08472   0.92952   0.07742
H          H       0.91441   0.49630   0.97196   0.10201
H          H       0.47291   0.55665   0.98412   0.16986
H          H       0.43515   0.91383   0.03428   0.15956
H          H       0.08632   0.52501   0.97713   0.16767
H          H       0.45573   0.58779   0.96881   0.05952
H          H       0.40990   0.86949   0.98498   0.04764
H          H       0.13207   0.54440   0.97719   0.04826
H          H       0.54040   0.41488   0.00948   0.05104
H          H       0.58863   0.12767   0.97230   0.04496
H          H       0.87494   0.46024   0.02979   0.05309
H          H       0.55768   0.38182   0.03493   0.09638
H          H       0.62098   0.18095   0.98456   0.09986
H          H       0.82199   0.44181  -0.00515   0.10431
H          H       0.59989   0.36654   0.06528   0.12064
H          H       0.63201   0.23582   0.97088   0.14172
H          H       0.76547   0.39855   0.00350   0.13260
H          H       0.66729   0.46133   0.95705   0.10752
H          H       0.53408   0.20144   0.04050   0.10860
H          H       0.79671   0.33227   0.96259   0.10529
H          H       0.62732   0.47602   0.97584   0.09474
H          H       0.52386   0.14692   0.04465   0.09289
H          H       0.85194   0.37533   0.97415   0.08995
H          H       0.43500   0.62202   0.00728   0.11063
H          H       0.37762   0.81590   0.98262   0.10399
H          H       0.18659   0.56509   0.97983   0.07858
H          H       0.39025   0.63304   0.01126   0.13977
H          H       0.36582   0.76058  -0.00024   0.13836
H          H       0.24135   0.60751   0.96095   0.11388
H          H       0.32650   0.53407   0.05046   0.10679
H          H       0.46429   0.79473   0.03507   0.11107
H          H       0.21043   0.67342   0.03743   0.13379
H          H       0.37019   0.52439   0.01972   0.10172
H          H       0.47527   0.84906   0.04599   0.10538
H          H       0.15438   0.62955   0.01295   0.13030
C          C       0.54810   0.49793   0.38438  -0.08883
C          C       0.50282   0.04828   0.47810  -0.13499
C          C       0.95104   0.45231   0.61044  -0.11109
C          C       0.52074   0.50502   0.37775  -0.05889
C          C       0.49656   0.01692   0.49365  -0.09645
C          C       0.98520   0.48129   0.60876  -0.05745
C          C       0.48970   0.47799   0.45598   0.03895
C          C       0.52267   0.01203   0.50546  -0.00130
C          C       0.98761   0.51136   0.52366   0.00330
C          C       0.48517   0.44856   0.49787  -0.11942
C          C       0.55220   0.03688   0.51114  -0.08776
C          C       0.96190   0.51471   0.50831  -0.10919
C          C       0.50966   0.44238   0.51457  -0.14673
C          C       0.55824   0.06804   0.59958  -0.06882
C          C       0.93122   0.48999   0.56435  -0.13086
C          C       0.54136   0.46636   0.47963   0.20456
C          C       0.53229   0.07427   0.51191   0.18761
C          C       0.92435   0.45787   0.54494   0.22011
C          C       0.46252   0.48109   0.37709   0.24050
C          C       0.52436   0.98463   0.60450   0.29418
C          C       0.01576   0.53930   0.60845   0.25859
C          C       0.43445   0.56974   0.52066  -0.03433
C          C       0.43162   0.86695   0.50250  -0.04032
C          C       0.13573   0.56370   0.48276  -0.04723
C          C       0.56237   0.43342   0.52003   0.01062
C          C       0.56590   0.12835   0.50777   0.02943
C          C       0.87145   0.43670   0.47290   0.01590
C          C       0.58834   0.42841   0.52805   0.04153
C          C       0.57161   0.15913   0.48075   0.06239
C          C       0.84035   0.41168   0.51142   0.05915
C          C       0.58335   0.39891   0.48504  -0.14911
C          C       0.60168   0.18468   0.51229  -0.11168
C          C       0.81631   0.41790   0.50519  -0.13419
C          C       0.60844   0.39195   0.40260  -0.10019
C          C       0.60832   0.21515   0.53096  -0.14799
C          C       0.78384   0.39405   0.52677  -0.13854
C          C       0.64095   0.41589   0.50392   0.38307
C          C       0.58413   0.22384   0.48907   0.37284
C          C       0.77494   0.36140   0.52433   0.35087
C          C       0.64527   0.44499   0.61810  -0.13341
C          C       0.55323   0.19853   0.39430  -0.13455
C          C       0.80006   0.35432   0.60702  -0.13407
C          C       0.61965   0.45406   0.61640  -0.03885
C          C       0.54630   0.16461   0.39281  -0.05128
C          C       0.83524   0.38096   0.61105  -0.03440
C          C       0.40737   0.57274   0.48639   0.05195
C          C       0.42524   0.83583   0.47014   0.05766
C          C       0.16611   0.59103   0.50684   0.05392
C          C       0.66986   0.36027   0.63112   0.31914
C          C       0.64092   0.31746   0.51399   0.39501
C          C       0.68607   0.33945   0.37328   0.27455
C          C       0.41132   0.60223   0.49176  -0.11235
C          C       0.39572   0.81092   0.48204  -0.11804
C          C       0.19125   0.58530   0.61519  -0.05433
C          C       0.38580   0.60891   0.46584  -0.14561
C          C       0.38821   0.77878   0.44903  -0.13800
C          C       0.22543   0.61405   0.61365  -0.12311
C          C       0.35326   0.58256   0.48297   0.36770
C          C       0.41363   0.77171   0.47415   0.36133
C          C       0.23046   0.64478   0.51356   0.36188
C          C       0.34920   0.55221   0.39038  -0.13510
C          C       0.44541   0.79765   0.39547  -0.12316
C          C       0.20256   0.64695   0.46355  -0.18141
C          C       0.37719   0.54554   0.38818  -0.03842
C          C       0.45096   0.83106   0.39007  -0.05302
C          C       0.17138   0.62086   0.47983  -0.08057
C          C       0.32578   0.63909   0.34395   0.37693
C          C       0.36190   0.68160   0.52246   0.33098
C          C       0.31515   0.67167   0.53201   0.30446
C          C       0.54788   0.49844   0.10267  -0.09332
C          C       0.50288   0.04883   0.00301  -0.14950
C          C       0.95167   0.45276   0.91209  -0.12017
C          C       0.51992   0.50450   0.11314  -0.05428
C          C       0.49555   0.01741   0.98782  -0.09073
C          C       0.98565   0.48111   0.89895  -0.05076
C          C       0.48918   0.47707   0.03860   0.01626
C          C       0.52053   0.01101   0.97121   0.00245
C          C       0.98953   0.51155   0.97139   0.01412
C          C       0.48617   0.44857   0.98240  -0.10200
C          C       0.55044   0.03498   0.96143  -0.10778
C          C       0.96414   0.51530   0.98503  -0.11939
C          C       0.51096   0.44279   0.97490  -0.16325
C          C       0.55836   0.06748   0.87397  -0.06471
C          C       0.93265   0.49079   0.94661  -0.12429
C          C       0.54275   0.46775   0.00748   0.21851
C          C       0.53276   0.07393   0.97294   0.19481
C          C       0.92517   0.45851   0.97155   0.22705
C          C       0.46008   0.47556   0.11748   0.24612
C          C       0.51835   0.98171   0.87605   0.24733
C          C       0.01900   0.53779   0.87668   0.25818
C          C       0.43243   0.56758  -0.00268  -0.03128
C          C       0.43076   0.86686   0.98549  -0.03496
C          C       0.13515   0.56770  -0.00074  -0.05706
C          C       0.56368   0.43540   0.98425   0.02184
C          C       0.56698   0.12885  -0.00186   0.04399
C          C       0.87227   0.43695   0.02813   0.01348
C          C       0.58883   0.42958   0.97765   0.03623
C          C       0.57180   0.15956   0.03158   0.05008
C          C       0.84113   0.41200   0.98104   0.05958
C          C       0.58240   0.39975   0.03174  -0.15212
C          C       0.60140   0.18560  -0.00473  -0.09458
C          C       0.81660   0.41766   0.98957  -0.13784
C          C       0.60641   0.39076   0.11232  -0.08676
C          C       0.60795   0.21651   0.97522  -0.16447
C          C       0.78411   0.39344   0.97177  -0.13824
C          C       0.63849   0.41281   0.00286   0.38146
C          C       0.58389   0.22448   0.01472   0.37339
C          C       0.77590   0.36090   0.97480   0.35264
C          C       0.64455   0.44372   0.89542  -0.13582
C          C       0.55305   0.19818   0.10664  -0.13285
C          C       0.80100   0.35448   0.88828  -0.13491
C          C       0.61983   0.45424   0.88278  -0.03449
C          C       0.54616   0.16417   0.11968  -0.04734
C          C       0.83619   0.38145   0.87616  -0.03981
C          C       0.40683   0.57281   0.02743   0.04458
C          C       0.42640   0.83642   0.02279   0.05951
C          C       0.16582   0.59380   0.97098   0.04355
C          C       0.67278   0.35420   0.87048   0.27713
C          C       0.64586   0.30932   0.02356   0.38588
C          C       0.68970   0.33451   0.14319   0.31483
C          C       0.41142   0.60253   0.02340  -0.10920
C          C       0.39685   0.81162   0.00670  -0.11807
C          C       0.18990   0.58573   0.87783  -0.04453
C          C       0.38618   0.60955   0.04866  -0.14192
C          C       0.38935   0.77950   0.03903  -0.13674
C          C       0.22434   0.61355   0.89317  -0.13060
C          C       0.35390   0.58354   0.02489   0.35955
C          C       0.41497   0.77289   0.02488   0.35115
C          C       0.23134   0.64495   0.98313   0.37069
C          C       0.34895   0.55273   0.11946  -0.13190
C          C       0.44627   0.79809   0.11506  -0.12376
C          C       0.20506   0.64933   0.03118  -0.16786
C          C       0.37664   0.54566   0.12405  -0.04093
C          C       0.45200   0.83159   0.11324  -0.05041
C          C       0.17326   0.62427   0.00267  -0.08192
C          C       0.31719   0.62402   0.12230   0.11372
C          C       0.35634   0.68767   0.98493   0.40884
C          C       0.30244   0.65920   0.02534   0.25691
N          N       0.56552   0.46211   0.48972  -0.29583
N          N       0.53757   0.10387   0.48771  -0.27638
N          N       0.89675   0.43332   0.51194  -0.29389
N          N       0.46176   0.54475   0.51633  -0.26773
N          N       0.46582   0.91937   0.48570  -0.25453
N          N       0.08276   0.53758   0.52014  -0.29598
N          N       0.43481   0.54269   0.52933  -0.01041
N          N       0.46082   0.89147   0.46865  -0.02574
N          N       0.10872   0.56359   0.52412  -0.01048
N          N       0.63810   0.34169   0.53853  -0.35607
N          N       0.66142   0.31040   0.48484  -0.35124
N          N       0.69266   0.36541   0.48133  -0.30822
N          N       0.35501   0.65565   0.42729  -0.31668
N          N       0.34414   0.69559   0.55621  -0.32538
N          N       0.30346   0.64474   0.44006  -0.34799
N          N       0.56763   0.46459  -0.00369  -0.29746
N          N       0.53909   0.10395   0.00638  -0.28341
N          N       0.89759   0.43348  -0.00290  -0.29287
N          N       0.45280   0.53539   0.02478  -0.23664
N          N       0.45770   0.91910   0.98494  -0.27986
N          N       0.08257   0.54318   0.02690  -0.24129
N          N       0.42876   0.53878   0.03245  -0.02488
N          N       0.45848   0.89362   0.96896  -0.01381
N          N       0.10856   0.56881   0.03699  -0.00349
N          N       0.64196   0.33180   0.97248  -0.36273
N          N       0.66790   0.30319   0.05255  -0.34519
N          N       0.69737   0.35740   0.98244  -0.30207
N          N       0.37779   0.68586   0.93120  -0.39924
N          N       0.32843   0.68429   0.03112  -0.27109
N          N       0.30006   0.62657   0.97431  -0.21644
O          O       0.66303   0.41171   0.49357  -0.34898
O          O       0.58863   0.25023   0.51040  -0.36405
O          O       0.74815   0.34015   0.48832  -0.35973
O          O       0.33057   0.58559   0.51331  -0.36739
O          O       0.40966   0.74583   0.51722  -0.33849
O          O       0.25659   0.66776   0.49787  -0.36913
O          O       0.44314   0.48312   0.50727  -0.28875
O          O       0.53658   0.97220   0.50578  -0.29714
O          O       0.02935   0.56487   0.49950  -0.31703
O          O       0.65948   0.40690   0.01095  -0.34958
O          O       0.58765   0.25089  -0.00295  -0.36302
O          O       0.74985   0.33855   0.01475  -0.35347
O          O       0.33094   0.58611   0.98272  -0.35535
O          O       0.41102   0.74732   0.98073  -0.34053
O          O       0.25859   0.66678   0.98730  -0.33119
O          O       0.43482   0.46243   0.00742  -0.32427
O          O       0.51729   0.95973   0.00074  -0.27099
O          O       0.03958   0.55947   0.99182  -0.27717

