data_crystal

_audit_creation_method 'AiiDA-DDEC plugin'

_cell_length_a        50.74816
_cell_length_b        51.13125
_cell_length_c         7.97724

_cell_angle_alpha     121.31955
_cell_angle_beta     76.59247
_cell_angle_gamma     120.35169

_symmetry_space_group_name_Hall 'P 1'
_symmetry_space_group_name_H-M  'P 1'

loop_
_symmetry_equiv_pos_as_xyz
 'x,y,z'

loop_
_atom_site_label
_atom_site_type_symbol
_atom_site_fract_x
_atom_site_fract_y
_atom_site_fract_z
_atom_site_charge
H          H       0.24191   0.67922   0.44928   0.13206
H          H       0.33209   0.57957   0.52986   0.13349
H          H       0.43785   0.75891   0.29501   0.13493
H          H       0.18702   0.63981   0.46874   0.11519
H          H       0.36977   0.56071   0.52302   0.11508
H          H       0.45491   0.81671   0.32368   0.11967
H          H       0.21561   0.58039   0.54421   0.10573
H          H       0.44136   0.64371   0.42334   0.10288
H          H       0.37386   0.81872   0.63094   0.09897
H          H       0.26960   0.61773   0.51065   0.13465
H          H       0.40429   0.66307   0.43590   0.13103
H          H       0.35736   0.76206   0.60750   0.13557
H          H       0.16264   0.56969   0.59711   0.06609
H          H       0.45288   0.60319   0.42211   0.06051
H          H       0.41001   0.86654   0.56273   0.05529
H          H       0.09954   0.59487   0.48254   0.12318
H          H       0.40347   0.51312   0.54763   0.12454
H          H       0.50934   0.91854   0.54673   0.12363
H          H       0.04428   0.56043   0.51332   0.13675
H          H       0.43397   0.48591   0.53367   0.14545
H          H       0.53351   0.97699   0.57275   0.14267
H          H       0.06327   0.48658   0.50300   0.11318
H          H       0.51424   0.56406   0.43491   0.10450
H          H       0.44632   0.95572   0.41944   0.10662
H          H       0.11847   0.52170   0.47992   0.11220
H          H       0.48425   0.59070   0.44897   0.10942
H          H       0.42249   0.89845   0.39947   0.10258
H          H       0.01338   0.49113   0.62095   0.27693
H          H       0.51713   0.52296   0.45260   0.25653
H          H       0.48928   0.00516   0.45395   0.26042
H          H       0.95380   0.51792   0.51445   0.12133
H          H       0.48071   0.43033   0.52244   0.12811
H          H       0.58686   0.08039   0.59810   0.12172
H          H       0.89844   0.48831   0.55895   0.11405
H          H       0.51959   0.41534   0.53086   0.11497
H          H       0.60170   0.13621   0.61528   0.10410
H          H       0.90911   0.40834   0.53639   0.11843
H          H       0.58992   0.50217   0.45728   0.12285
H          H       0.50743   0.10333   0.52367   0.12046
H          H       0.96522   0.43908   0.50134   0.10413
H          H       0.55139   0.51774   0.45520   0.09441
H          H       0.49262   0.04846   0.51236   0.09667
H          H       0.85599   0.44754   0.44141   0.06932
H          H       0.55498   0.41226   0.56816   0.06107
H          H       0.60706   0.16563   0.49907   0.06098
H          H       0.80416   0.44263   0.48881   0.11184
H          H       0.57001   0.37683   0.57391   0.10841
H          H       0.64434   0.21709   0.50218   0.10854
H          H       0.74802   0.40760   0.49829   0.13484
H          H       0.60836   0.35832   0.54399   0.13516
H          H       0.66030   0.27046   0.48803   0.13539
H          H       0.76404   0.33408   0.51508   0.13480
H          H       0.67682   0.44105   0.42984   0.13702
H          H       0.56719   0.25286   0.55440   0.13487
H          H       0.82072   0.36994   0.51100   0.11970
H          H       0.63769   0.45920   0.45514   0.11774
H          H       0.55105   0.19869   0.56836   0.12271
H          H       0.23693   0.66619   0.96285   0.13326
H          H       0.32075   0.55576   0.04068   0.13441
H          H       0.42466   0.73269   0.78900   0.13521
H          H       0.18030   0.63335   0.98544   0.11579
H          H       0.35922   0.53792   0.03236   0.11643
H          H       0.44135   0.78983   0.80914   0.11872
H          H       0.19435   0.56077   0.02684   0.10676
H          H       0.42911   0.62038   0.92225   0.10395
H          H       0.36340   0.79548   0.14836   0.10322
H          H       0.25047   0.59298   0.00128   0.13301
H          H       0.39138   0.63857   0.93470   0.13443
H          H       0.34695   0.73920   0.12928   0.13930
H          H       0.14267   0.55650   0.06641   0.06652
H          H       0.44300   0.58388   0.94285   0.05896
H          H       0.39876   0.84249   0.08096   0.05482
H          H       0.09580   0.60156   0.95269   0.11651
H          H       0.39653   0.49309   0.06235   0.12049
H          H       0.49662   0.89085  -0.00027   0.12409
H          H       0.03877   0.57512   0.97314   0.13328
H          H       0.42805   0.46713   0.04875   0.13652
H          H       0.51979   0.94988   0.03691   0.14187
H          H       0.04027   0.49786   0.04200   0.11358
H          H       0.50638   0.54382   0.92786   0.10052
H          H       0.43042   0.93213   0.95066   0.10554
H          H       0.09607   0.52381   0.02302   0.11095
H          H       0.47495   0.56823   0.93207   0.10617
H          H       0.40743   0.87450   0.92701   0.10074
H          H       0.99824   0.50667   0.11367   0.27421
H          H       0.51040   0.50283   0.94346   0.25804
H          H       0.47353   0.98031   0.96073   0.26220
H          H       0.93001   0.52565   0.01814   0.11488
H          H       0.47436   0.41046   0.01598   0.12745
H          H       0.57105   0.05716   0.12762   0.11934
H          H       0.87653   0.48573   0.05192   0.11004
H          H       0.51279   0.39346   0.00743   0.11259
H          H       0.58647   0.11308   0.14629   0.10660
H          H       0.90888   0.42303   0.05735   0.11873
H          H       0.58396   0.48302   0.96303   0.12240
H          H       0.49476   0.07589   0.97468   0.11559
H          H       0.96154   0.46196   0.02026   0.10254
H          H       0.54560   0.49900   0.96229   0.10091
H          H       0.47927   0.02038   0.95693   0.09620
H          H       0.83900   0.43326   0.90146   0.06485
H          H       0.54850   0.39568   0.09280   0.06043
H          H       0.59416   0.14085   0.00349   0.06332
H          H       0.78635   0.42006   0.93578   0.10634
H          H       0.56154   0.35743   0.08759   0.10634
H          H       0.63241   0.19210   0.00524   0.10668
H          H       0.73244   0.38066   0.95278   0.13320
H          H       0.59887   0.33714   0.05410   0.13572
H          H       0.64991   0.24629   0.99499   0.13398
H          H       0.76151   0.32395   0.05248   0.13181
H          H       0.66843   0.41809   0.92914   0.13370
H          H       0.55725   0.22987   0.04958   0.13380
H          H       0.81620   0.36547   0.05007   0.11811
H          H       0.63022   0.43731   0.95204   0.12076
H          H       0.53967   0.17529   0.06210   0.12069
C          C       0.31463   0.67511   0.46531   0.58576
C          C       0.34329   0.65408   0.47593   0.58291
C          C       0.36543   0.70231   0.45118   0.58058
C          C       0.25875   0.65066   0.47879   0.26696
C          C       0.36633   0.62227   0.48458   0.26513
C          C       0.39695   0.75761   0.44982   0.26513
C          C       0.23561   0.65723   0.46827  -0.20176
C          C       0.35624   0.59336   0.50851  -0.19682
C          C       0.42435   0.77267   0.36892  -0.18715
C          C       0.20527   0.63544   0.47962  -0.08747
C          C       0.37689   0.58298   0.50468  -0.07801
C          C       0.43363   0.80438   0.38405  -0.07814
C          C       0.19754   0.60725   0.50618   0.03457
C          C       0.40796   0.60099   0.47270   0.04314
C          C       0.41557   0.82151   0.47917   0.04654
C          C       0.22114   0.60167   0.51987  -0.10039
C          C       0.41742   0.62973   0.44862  -0.10568
C          C       0.38808   0.80576   0.55754  -0.11325
C          C       0.25170   0.62263   0.50256  -0.20503
C          C       0.39695   0.64094   0.45510  -0.20175
C          C       0.37852   0.77396   0.54567  -0.20521
C          C       0.16592   0.58454   0.52523   0.07537
C          C       0.42965   0.58971   0.46391   0.07038
C          C       0.42609   0.85557   0.50124   0.06465
C          C       0.11296   0.56135   0.48342   0.19377
C          C       0.44118   0.55325   0.49683   0.18318
C          C       0.46428   0.90466   0.47590   0.18830
C          C       0.09134   0.57130   0.48965  -0.13858
C          C       0.42782   0.52393   0.52280  -0.12736
C          C       0.49573   0.92723   0.52153  -0.13504
C          C       0.06045   0.55202   0.50636  -0.15737
C          C       0.44459   0.50867   0.51533  -0.16266
C          C       0.50930   0.95978   0.53694  -0.17657
C          C       0.05010   0.52120   0.51034   0.21830
C          C       0.47594   0.52293   0.48075   0.23516
C          C       0.49152   0.97042   0.50008   0.22800
C          C       0.07128   0.51057   0.50097  -0.18015
C          C       0.48983   0.55277   0.45922  -0.19867
C          C       0.46006   0.94811   0.45389  -0.20302
C          C       0.10240   0.53047   0.48852  -0.16284
C          C       0.47288   0.56780   0.46733  -0.16788
C          C       0.44660   0.91582   0.44262  -0.17314
C          C       0.99522   0.49922   0.45756   0.47503
C          C       0.48671   0.48049   0.48639   0.45260
C          C       0.53338   0.02882   0.55383   0.46755
C          C       0.96312   0.48040   0.50194  -0.04350
C          C       0.51279   0.47473   0.48893  -0.05154
C          C       0.53917   0.06037   0.55145  -0.03756
C          C       0.94377   0.49386   0.51900  -0.06439
C          C       0.50482   0.44590   0.50930  -0.08784
C          C       0.56984   0.08576   0.57961  -0.07683
C          C       0.91276   0.47696   0.54176  -0.16877
C          C       0.52680   0.43777   0.51384  -0.17769
C          C       0.57788   0.11667   0.58792  -0.17914
C          C       0.89978   0.44514   0.54045   0.21360
C          C       0.55800   0.45810   0.49526   0.20423
C          C       0.55540   0.12326   0.56553   0.21273
C          C       0.91927   0.43242   0.53173  -0.15511
C          C       0.56595   0.48685   0.47418  -0.15450
C          C       0.52470   0.09808   0.53972  -0.14801
C          C       0.95069   0.44990   0.51292  -0.11570
C          C       0.54380   0.49522   0.47249  -0.11879
C          C       0.51676   0.06701   0.53091  -0.11344
C          C       0.84899   0.42932   0.49646   0.07184
C          C       0.57735   0.42795   0.52883   0.08096
C          C       0.58845   0.17265   0.53578   0.06681
C          C       0.81614   0.40871   0.50132   0.03638
C          C       0.60119   0.41924   0.51680   0.04044
C          C       0.59665   0.20437   0.53647   0.04036
C          C       0.79547   0.41899   0.49652  -0.10061
C          C       0.59341   0.39094   0.54136  -0.08970
C          C       0.62730   0.22485   0.51354  -0.11182
C          C       0.76391   0.39960   0.50162  -0.20445
C          C       0.61475   0.38037   0.52648  -0.19865
C          C       0.63662   0.25489   0.50572  -0.20433
C          C       0.75326   0.36891   0.50620   0.26187
C          C       0.64479   0.39902   0.48683   0.26509
C          C       0.61442   0.26439   0.52013   0.26747
C          C       0.77343   0.35792   0.50874  -0.18894
C          C       0.65324   0.42743   0.46159  -0.19982
C          C       0.58367   0.24456   0.54484  -0.18747
C          C       0.80461   0.37774   0.50698  -0.09104
C          C       0.63162   0.43742   0.47575  -0.08474
C          C       0.57484   0.21479   0.55272  -0.07947
C          C       0.69714   0.34678   0.50583   0.58835
C          C       0.66898   0.36756   0.48641   0.57203
C          C       0.64610   0.31826   0.50148   0.58004
C          C       0.30265   0.65134   0.96664   0.58468
C          C       0.33018   0.62947   0.98216   0.57768
C          C       0.35359   0.67858   0.96511   0.57628
C          C       0.24662   0.63135   0.98038   0.26209
C          C       0.35387   0.59793   0.98793   0.25811
C          C       0.38525   0.73325   0.95903   0.26053
C          C       0.22705   0.64305   0.97741  -0.18927
C          C       0.34466   0.56955   0.01509  -0.19774
C          C       0.41167   0.74699   0.86674  -0.19376
C          C       0.19586   0.62492   0.98990  -0.09723
C          C       0.36590   0.55973   0.01047  -0.09021
C          C       0.42080   0.77841   0.87803  -0.08503
C          C       0.18341   0.59470   0.00555   0.03829
C          C       0.39682   0.57797   0.97715   0.04548
C          C       0.40362   0.79651   0.98093   0.03871
C          C       0.20350   0.58370   0.01069  -0.10377
C          C       0.40538   0.60620   0.94973  -0.09322
C          C       0.37685   0.78171   0.06806  -0.11190
C          C       0.23512   0.60152  -0.00365  -0.20553
C          C       0.38436   0.61660   0.95466  -0.20123
C          C       0.36737   0.75015   0.05888  -0.19778
C          C       0.15038   0.57576   0.01802   0.06437
C          C       0.41963   0.56821   0.97235   0.06698
C          C       0.41401   0.83057   0.00382   0.06821
C          C       0.10023   0.56530   0.98921   0.18729
C          C       0.43292   0.53209  -0.00233   0.18554
C          C       0.45056   0.87875   0.96440   0.19478
C          C       0.08328   0.57894   0.97404  -0.13564
C          C       0.42064   0.50370   0.03104  -0.12099
C          C       0.48231   0.90037   0.99145  -0.12686
C          C       0.05155   0.56434   0.98502  -0.17727
C          C       0.43805   0.48922   0.02458  -0.16284
C          C       0.49536   0.93321   0.01177  -0.16935
C          C       0.03582   0.53487   0.01003   0.22946
C          C       0.46923   0.50359   0.98628   0.23835
C          C       0.47673   0.94501  -0.00368   0.23063
C          C       0.05251   0.52062   0.02192  -0.18346
C          C       0.48215   0.53247   0.95627  -0.19430
C          C       0.44495   0.92346   0.96644  -0.19938
C          C       0.08406   0.53550   0.01223  -0.15921
C          C       0.46436   0.54634   0.95960  -0.16172
C          C       0.43200   0.89099   0.95247  -0.17099
C          C       0.98104   0.52154   0.99087   0.45912
C          C       0.48096   0.46230  -0.00308   0.45514
C          C       0.51845   0.00322   0.04423   0.45561
C          C       0.94957   0.49696   0.01676  -0.04010
C          C       0.50682   0.45572   0.99234  -0.05449
C          C       0.52449   0.03485   0.04191  -0.04731
C          C       0.92500   0.50292   0.02537  -0.08311
C          C       0.49852   0.42605   0.00440  -0.08202
C          C       0.55470   0.06154   0.09214  -0.06081
C          C       0.89518   0.48037   0.04240  -0.17931
C          C       0.52025   0.41700   0.00180  -0.17676
C          C       0.56314   0.09256   0.10059  -0.16780
C          C       0.88898   0.45076   0.04890   0.20670
C          C       0.55156   0.43788   0.99070   0.20429
C          C       0.54166   0.09813   0.05673   0.22013
C          C       0.91365   0.44538   0.04673  -0.15603
C          C       0.55988   0.46735   0.97561  -0.15649
C          C       0.51129   0.07149   0.00810  -0.16592
C          C       0.94331   0.46775   0.02757  -0.10610
C          C       0.53789   0.47607   0.97572  -0.12248
C          C       0.50291   0.04031  -0.00100  -0.11804
C          C       0.83640   0.42035   0.98419   0.07771
C          C       0.57043   0.40870   0.03699   0.08402
C          C       0.57581   0.14807   0.03498   0.07385
C          C       0.80509   0.39594   0.99505   0.03825
C          C       0.59334   0.39859   0.02141   0.03960
C          C       0.58492   0.18024   0.03684   0.04146
C          C       0.78110   0.39945   0.96568  -0.10142
C          C       0.58493   0.37056   0.05040  -0.09951
C          C       0.61580   0.20036   0.01560  -0.10683
C          C       0.75057   0.37729   0.97363  -0.20512
C          C       0.60559   0.35897   0.03331  -0.20078
C          C       0.62599   0.23079   0.00924  -0.21022
C          C       0.74390   0.35008   0.00413   0.26277
C          C       0.63560   0.37673   0.99009   0.26798
C          C       0.60437   0.24099   0.02274   0.26470
C          C       0.76744   0.34547   0.02982  -0.20046
C          C       0.64476   0.40502   0.96191  -0.19889
C          C       0.57333   0.22122   0.04251  -0.18711
C          C       0.79777   0.36850   0.02772  -0.09066
C          C       0.62372   0.41564   0.97489  -0.08398
C          C       0.56369   0.19116   0.04945  -0.07434
C          C       0.68781   0.32397   0.00371   0.58372
C          C       0.65889   0.34446   0.99001   0.58160
C          C       0.63680   0.29557   0.00871   0.58269
N          N       0.33909   0.70202   0.45045  -0.52946
N          N       0.31512   0.65059   0.47857  -0.51179
N          N       0.36934   0.67899   0.46189  -0.51430
N          N       0.14338   0.58298   0.46516  -0.29621
N          N       0.42129   0.56511   0.50342  -0.29556
N          N       0.45344   0.87211   0.45668  -0.27833
N          N       0.01855   0.50080   0.52723  -0.37394
N          N       0.49478   0.50962   0.47342  -0.37197
N          N       0.50375   0.00227   0.50419  -0.36915
N          N       0.86829   0.42515   0.54905  -0.30141
N          N       0.58211   0.45187   0.49221  -0.30968
N          N       0.56134   0.15359   0.57046  -0.29202
N          N       0.67235   0.31944   0.51313  -0.51670
N          N       0.69735   0.37196   0.49470  -0.51994
N          N       0.64269   0.34130   0.48476  -0.51398
N          N       0.32767   0.67816   0.95491  -0.52288
N          N       0.30201   0.62599   0.97856  -0.52198
N          N       0.35667   0.65527   0.98052  -0.51443
N          N       0.13203   0.58251   0.97698  -0.30145
N          N       0.41216   0.54286   0.00317  -0.29967
N          N       0.44019   0.84617   0.94364  -0.27748
N          N       0.00397   0.51768   0.02506  -0.39843
N          N       0.48863   0.49082   0.97911  -0.37045
N          N       0.48836   0.97749   0.00837  -0.38730
N          N       0.85967   0.42629   0.06316  -0.29404
N          N       0.57529   0.43097   0.98575  -0.30467
N          N       0.54820   0.12875   0.06258  -0.29571
N          N       0.66335   0.29649   0.01308  -0.52420
N          N       0.68717   0.34855   0.99180  -0.51270
N          N       0.63288   0.31899  -0.00150  -0.51689
O          O       0.28802   0.67515   0.46448  -0.22230
O          O       0.34214   0.62848   0.49147  -0.22570
O          O       0.39231   0.72708   0.43540  -0.21822
O          O       0.72292   0.34576   0.51192  -0.21788
O          O       0.66979   0.39363   0.47688  -0.22366
O          O       0.61898   0.29285   0.50864  -0.21820
O          O       0.00019   0.51331   0.35686  -0.48847
O          O       0.46016   0.46051   0.49805  -0.43689
O          O       0.55399   0.02746   0.60116  -0.45606
O          O       0.27707   0.65308   0.96469  -0.21703
O          O       0.32904   0.60322   0.99066  -0.22685
O          O       0.38095   0.70365   0.95573  -0.22095
O          O       0.71456   0.32453   0.00932  -0.22403
O          O       0.65991   0.37019   0.97525  -0.23029
O          O       0.60978   0.27022   0.01667  -0.21763
O          O       0.98537   0.54206   0.93641  -0.47887
O          O       0.45454   0.44312   0.01813  -0.44553
O          O       0.53928   0.00109   0.08325  -0.45403

