data_crystal

_audit_creation_method 'AiiDA-DDEC plugin'

_cell_length_a        38.14008
_cell_length_b        42.54750
_cell_length_c         8.00083

_cell_angle_alpha     113.48942
_cell_angle_beta     90.22419
_cell_angle_gamma     90.00359

_symmetry_space_group_name_Hall 'P 1'
_symmetry_space_group_name_H-M  'P 1'

loop_
_symmetry_equiv_pos_as_xyz
 'x,y,z'

loop_
_atom_site_label
_atom_site_type_symbol
_atom_site_fract_x
_atom_site_fract_y
_atom_site_fract_z
_atom_site_charge
H          H       0.53100   0.43007   0.08074   0.10952
H          H       0.46858   0.58770   0.08038   0.11374
H          H       0.53188   0.58719   0.08306   0.11551
H          H       0.46662   0.42989   0.07586   0.10925
H          H       0.03012   0.92786   0.06172   0.10949
H          H       0.96872   0.08712   0.07804   0.11522
H          H       0.03202   0.08610   0.07176   0.11477
H          H       0.96596   0.92842   0.06250   0.10933
H          H       0.43443   0.40370   0.28433   0.10986
H          H       0.55871   0.57541   0.34546   0.10204
H          H       0.44459   0.57799   0.36737   0.10311
H          H       0.56766   0.40418   0.28179   0.10770
H          H       0.93791   0.90086   0.27867   0.11008
H          H       0.05534   0.07542   0.33665   0.09971
H          H       0.94202   0.07571   0.35492   0.10310
H          H       0.06853   0.90420   0.27969   0.10709
H          H       0.39687   0.35551   0.27847   0.11180
H          H       0.59428   0.62480   0.35887   0.11063
H          H       0.40866   0.62678   0.37775   0.11098
H          H       0.60356   0.35497   0.27166   0.11262
H          H       0.89881   0.85268   0.25491   0.11311
H          H       0.08914   0.12526   0.34257   0.10994
H          H       0.90557   0.12476   0.37350   0.11053
H          H       0.10489   0.85563   0.27266   0.11151
H          H       0.33101   0.42605   0.19965   0.11163
H          H       0.67911   0.59198   0.08889   0.11088
H          H       0.31933   0.59094   0.09164   0.11160
H          H       0.67226   0.42943   0.18265   0.11305
H          H       0.83060   0.92625   0.19519   0.10936
H          H       0.18122   0.08730   0.07283   0.11257
H          H       0.82087   0.09348   0.08744   0.11157
H          H       0.16922   0.92321   0.16173   0.11201
H          H       0.36659   0.47554   0.20639   0.10555
H          H       0.64217   0.54316   0.08382   0.10455
H          H       0.35774   0.54265   0.08175   0.10353
H          H       0.63453   0.47781   0.18881   0.10630
H          H       0.86679   0.97573   0.20462   0.10738
H          H       0.14298   0.03886   0.05955   0.10376
H          H       0.85765   0.04405   0.07588   0.10597
H          H       0.13328   0.97306   0.17638   0.10706
H          H       0.35051   0.33300   0.39588   0.09914
H          H       0.64365   0.65986   0.44797   0.10365
H          H       0.35632   0.65824   0.43395   0.10294
H          H       0.65142   0.33092   0.37196   0.09934
H          H       0.84959   0.82969   0.35075   0.09959
H          H       0.13941   0.16125   0.42028   0.10242
H          H       0.85532   0.15743   0.44878   0.10262
H          H       0.14989   0.83167   0.38923   0.09839
H          H       0.68719   0.75936   0.96551   0.12778
H          H       0.31579   0.24296   0.05080   0.12943
H          H       0.68798   0.24783   0.06835   0.13180
H          H       0.30917   0.76366   0.01574   0.12633
H          H       0.18895   0.25910   0.97092   0.12595
H          H       0.81411   0.74456   0.05956   0.12930
H          H       0.18213   0.73647   0.98682   0.13028
H          H       0.81399   0.26264   0.96652   0.13052
H          H       0.73044   0.80263   0.95528   0.10463
H          H       0.27303   0.20093   0.06811   0.10609
H          H       0.73125   0.20676   0.09087   0.10567
H          H       0.26536   0.80510   0.99174   0.10306
H          H       0.23254   0.30150   0.95151   0.10541
H          H       0.77146   0.70245   0.07298   0.10471
H          H       0.22584   0.69471   0.00520   0.10515
H          H       0.77036   0.30488   0.94894   0.10344
H          H       0.23253   0.17904   0.13034   0.25363
H          H       0.77151   0.84152   0.13407   0.26713
H          H       0.22182   0.83761   0.13557   0.26468
H          H       0.77128   0.18395   0.14305   0.25152
H          H       0.73274   0.67772   0.10769   0.25239
H          H       0.27561   0.33927   0.15275   0.26486
H          H       0.72956   0.34374   0.13942   0.27408
H          H       0.26601   0.67907   0.12883   0.25241
H          H       0.53370   0.42489   0.56272   0.11022
H          H       0.46990   0.58549   0.60416   0.11444
H          H       0.53346   0.58471   0.58554   0.11474
H          H       0.46914   0.42473   0.56048   0.10942
H          H       0.03538   0.92492   0.55276   0.10787
H          H       0.96819   0.08405   0.59186   0.11374
H          H       0.03198   0.08511   0.59236   0.11446
H          H       0.97085   0.92457   0.56013   0.10900
H          H       0.43323   0.40705   0.78742   0.10729
H          H       0.55767   0.57776   0.84428   0.09939
H          H       0.44108   0.58154   0.85771   0.10034
H          H       0.56383   0.40636   0.80500   0.10932
H          H       0.93225   0.90705   0.77933   0.10709
H          H       0.05883   0.07858   0.84277   0.09973
H          H       0.94234   0.08025   0.84761   0.10014
H          H       0.06107   0.90506   0.78676   0.10812
H          H       0.39678   0.35800   0.77461   0.11154
H          H       0.59368   0.62647   0.85258   0.10926
H          H       0.40345   0.62942   0.87053   0.11094
H          H       0.60133   0.35823   0.79881   0.11555
H          H       0.89606   0.85797   0.76941   0.11200
H          H       0.09627   0.12678   0.85904   0.10970
H          H       0.90695   0.13011   0.86901   0.11024
H          H       0.09658   0.85540   0.77237   0.11175
H          H       0.33049   0.42615   0.68940   0.11142
H          H       0.67992   0.59066   0.59373   0.11098
H          H       0.32083   0.58823   0.57427   0.11169
H          H       0.67012   0.42297   0.69673   0.11026
H          H       0.82938   0.92267   0.65131   0.11342
H          H       0.17810   0.09309   0.56536   0.11132
H          H       0.82078   0.08745   0.59766   0.11214
H          H       0.17064   0.92495   0.69766   0.10955
H          H       0.36899   0.47442   0.70016   0.10251
H          H       0.64371   0.54110   0.58399   0.10477
H          H       0.35806   0.54023   0.57692   0.10460
H          H       0.63440   0.47252   0.70397   0.10790
H          H       0.86762   0.97131   0.66656   0.10458
H          H       0.14385   0.04281   0.56049   0.10551
H          H       0.85832   0.03861   0.58544   0.10366
H          H       0.13458   0.97382   0.70026   0.10505
H          H       0.35163   0.33335   0.88200   0.09857
H          H       0.64568   0.66015   0.93143   0.10265
H          H       0.35092   0.65954   0.93188   0.10259
H          H       0.64866   0.33575   0.89962   0.09900
H          H       0.85176   0.83352   0.88906   0.09952
H          H       0.14685   0.15885   0.93582   0.10243
H          H       0.85506   0.16209   0.93429   0.10139
H          H       0.14528   0.83065   0.86374   0.09949
H          H       0.68711   0.75856   0.46267   0.12909
H          H       0.30864   0.24579   0.56216   0.13243
H          H       0.68567   0.24241   0.58904   0.13351
H          H       0.31416   0.76372   0.52026   0.12668
H          H       0.18322   0.26420   0.46113   0.12698
H          H       0.81407   0.74363   0.55779   0.12986
H          H       0.18711   0.73610   0.48669   0.12744
H          H       0.81093   0.25778   0.47210   0.12887
H          H       0.73045   0.80148   0.45197   0.10360
H          H       0.26436   0.20444   0.56922   0.10620
H          H       0.72941   0.20048   0.59525   0.10338
H          H       0.27006   0.80630   0.51238   0.10403
H          H       0.22804   0.30643   0.45541   0.10294
H          H       0.77137   0.70119   0.56836   0.10402
H          H       0.23121   0.69346   0.49204   0.10472
H          H       0.76630   0.29944   0.45809   0.10389
H          H       0.22280   0.18575   0.64119   0.24906
H          H       0.77236   0.83986   0.61983   0.26600
H          H       0.22643   0.83797   0.65613   0.26301
H          H       0.76933   0.17751   0.63766   0.25094
H          H       0.73281   0.67619   0.60177   0.25281
H          H       0.27042   0.34337   0.64199   0.26735
H          H       0.72806   0.33835   0.64228   0.26535
H          H       0.26966   0.67697   0.61434   0.25428
C          C       0.51696   0.44933   0.04996  -0.13052
C          C       0.48196   0.56345   0.04522  -0.13266
C          C       0.51785   0.56317   0.04548  -0.13460
C          C       0.48098   0.44928   0.04765  -0.13219
C          C       0.01622   0.94767   0.03511  -0.13136
C          C       0.98203   0.06276   0.04054  -0.13289
C          C       0.01795   0.06219   0.03737  -0.13530
C          C       0.98025   0.94808   0.03631  -0.13091
C          C       0.53648   0.47515   0.02102   0.04532
C          C       0.46199   0.53309   0.00829   0.04673
C          C       0.53721   0.53244   0.00615   0.04776
C          C       0.46180   0.47517   0.01697   0.04782
C          C       0.03588   0.97351   0.00689   0.04621
C          C       0.96189   0.03253   0.00330   0.04610
C          C       0.03716   0.03142  -0.00106   0.04838
C          C       0.96128   0.97458   0.01042   0.04475
C          C       0.42662   0.47138   0.50580  -0.01389
C          C       0.57650   0.52838   0.48988  -0.00687
C          C       0.42624   0.52945   0.50110  -0.00677
C          C       0.57625   0.47138   0.50840  -0.00682
C          C       0.92739   0.96936   0.49551  -0.00290
C          C       0.07591   0.02929   0.48374  -0.00034
C          C       0.92571   0.02725   0.48877  -0.00575
C          C       0.07707   0.97149   0.49346  -0.00786
C          C       0.40467   0.44221   0.49720   0.08570
C          C       0.59782   0.55589   0.47531   0.07706
C          C       0.40473   0.55656   0.48253   0.07659
C          C       0.59786   0.44171   0.49802   0.08486
C          C       0.90574   0.93945   0.47798   0.08483
C          C       0.09618   0.05679   0.46171   0.07422
C          C       0.90361   0.05480   0.48021   0.07533
C          C       0.09877   0.94250   0.49207   0.08340
C          C       0.41229   0.40851   0.37660  -0.13521
C          C       0.58450   0.57944   0.40821  -0.13832
C          C       0.41818   0.58087   0.42151  -0.13916
C          C       0.58962   0.40825   0.37520  -0.13376
C          C       0.91437   0.90569   0.36154  -0.13381
C          C       0.08154   0.07996   0.39529  -0.13490
C          C       0.91618   0.07894   0.41594  -0.13833
C          C       0.09073   0.90879   0.37213  -0.13280
C          C       0.39094   0.38162   0.37156  -0.12531
C          C       0.60458   0.60711   0.41452  -0.12347
C          C       0.39771   0.60810   0.42450  -0.12294
C          C       0.61007   0.38069   0.36845  -0.12931
C          C       0.89240   0.87866   0.34837  -0.12677
C          C       0.10065   0.10794   0.39753  -0.12741
C          C       0.89545   0.10633   0.42431  -0.12211
C          C       0.11124   0.88148   0.36842  -0.12871
C          C       0.36121   0.38770   0.48358   0.05895
C          C       0.63888   0.61203   0.48538   0.06033
C          C       0.36268   0.61175   0.48418   0.06306
C          C       0.63943   0.38559   0.48340   0.06117
C          C       0.86165   0.88433   0.45316   0.06362
C          C       0.13520   0.11395   0.46599   0.06715
C          C       0.86118   0.11051   0.49442   0.05895
C          C       0.14042   0.88677   0.48457   0.06181
C          C       0.35292   0.42216   0.10676  -0.10388
C          C       0.65237   0.58876   0.03680  -0.12014
C          C       0.34607   0.58864   0.04123  -0.11883
C          C       0.64848   0.42462   0.10078  -0.10451
C          C       0.85245   0.92241   0.10221  -0.10561
C          C       0.15425   0.08546   0.02454  -0.11898
C          C       0.84773   0.09068   0.03823  -0.12062
C          C       0.14574   0.91945   0.07841  -0.10345
C          C       0.37302   0.44977   0.11090  -0.12726
C          C       0.63188   0.56160   0.03300  -0.11662
C          C       0.36737   0.56187   0.03525  -0.12050
C          C       0.62734   0.45151   0.10475  -0.12686
C          C       0.87272   0.94996   0.10699  -0.12749
C          C       0.13291   0.05849   0.01698  -0.11962
C          C       0.86805   0.06316   0.03061  -0.11843
C          C       0.12564   0.94722   0.08656  -0.12782
C          C       0.34061   0.35855   0.47748   0.00825
C          C       0.65775   0.64215   0.49193   0.01516
C          C       0.34340   0.64152   0.48838   0.01407
C          C       0.65984   0.35584   0.47118   0.01448
C          C       0.84086   0.85499   0.44341   0.01135
C          C       0.15278   0.14513   0.47745   0.01296
C          C       0.84216   0.14080   0.50345   0.01464
C          C       0.15988   0.85684   0.47783   0.00745
C          C       0.72582   0.72858   0.02217  -0.03628
C          C       0.27704   0.27541   0.00684  -0.03145
C          C       0.72622   0.27959   0.01393  -0.03407
C          C       0.27080   0.72729   0.01891  -0.03358
C          C       0.22729   0.22788   0.02537  -0.03991
C          C       0.77525   0.77682   0.01156  -0.03466
C          C       0.22055   0.77370   0.99387  -0.03003
C          C       0.77621   0.23231   0.03187  -0.03916
C          C       0.71503   0.75718   0.99017  -0.09365
C          C       0.28790   0.24656   0.03634  -0.09012
C          C       0.71571   0.25122   0.04897  -0.09724
C          C       0.28119   0.75861   0.01479  -0.09353
C          C       0.21675   0.25662   0.99363  -0.09786
C          C       0.78630   0.74796   0.04088  -0.09116
C          C       0.21000   0.74234  -0.00321  -0.08515
C          C       0.78641   0.26041   0.99343  -0.09633
C          C       0.73940   0.78122   0.98601  -0.12323
C          C       0.26332   0.22315   0.04689  -0.12010
C          C       0.74048   0.22813   0.06049  -0.11958
C          C       0.25645   0.78165   0.00278  -0.12622
C          C       0.24119   0.28026   0.98482  -0.12567
C          C       0.76177   0.72429   0.04805  -0.12285
C          C       0.23482   0.71933   0.00936  -0.12637
C          C       0.76183   0.28401   0.98549  -0.12311
C          C       0.69722   0.70405   0.01861   0.41998
C          C       0.30456   0.29836   0.98369   0.43035
C          C       0.69791   0.30243  -0.00293   0.42513
C          C       0.29971   0.70332   0.01831   0.42272
C          C       0.19847   0.20339   0.02182   0.42077
C          C       0.80295   0.80004   0.99202   0.42796
C          C       0.19263   0.79623   0.96934   0.42854
C          C       0.80491   0.20785   0.02963   0.42093
C          C       0.48051   0.50383   0.00988  -0.00333
C          C       0.51817   0.50364   0.01017  -0.00290
C          C       0.98022   0.00314   0.00390  -0.00321
C          C       0.01789   0.00261   0.00180  -0.00205
C          C       0.41125   0.50019   0.50365  -0.08060
C          C       0.59158   0.49976   0.50056  -0.08395
C          C       0.91123   0.99813   0.49573  -0.09238
C          C       0.09170   0.00052   0.48939  -0.08686
C          C       0.51936   0.44512   0.54206  -0.13034
C          C       0.48365   0.56129   0.56296  -0.13206
C          C       0.51945   0.56082   0.55386  -0.13452
C          C       0.48346   0.44494   0.53967  -0.13137
C          C       0.02062   0.94459   0.52906  -0.13070
C          C       0.98254   0.06019   0.55217  -0.13520
C          C       0.01836   0.06084   0.55387  -0.12826
C          C       0.98475   0.94437   0.53329  -0.12788
C          C       0.53870   0.47196   0.52091   0.04541
C          C       0.46377   0.53078   0.52405   0.04743
C          C       0.53896   0.52991   0.51136   0.04855
C          C       0.46415   0.47168   0.51691   0.04704
C          C       0.03941   0.97116   0.50163   0.04956
C          C       0.96338   0.02897   0.50613   0.05332
C          C       0.03853   0.03038   0.51028   0.04438
C          C       0.96485   0.97062   0.50956   0.04332
C          C       0.42410   0.47448   0.00441  -0.01015
C          C       0.57485   0.53085   0.98683  -0.00584
C          C       0.42438   0.53181   0.98922  -0.00743
C          C       0.57411   0.47445   0.00968  -0.00751
C          C       0.92360   0.97435  -0.00146  -0.00638
C          C       0.07484   0.02944   0.97744  -0.00650
C          C       0.92426   0.03157   0.98297  -0.00494
C          C       0.07349   0.97228   0.99329  -0.00933
C          C       0.40277   0.44489  -0.00052   0.08527
C          C       0.59654   0.55818   0.97346   0.07485
C          C       0.40273   0.55944   0.97799   0.07628
C          C       0.59583   0.44533   0.00390   0.08493
C          C       0.90211   0.94489   0.99316   0.08596
C          C       0.09719   0.05648   0.96350   0.07833
C          C       0.90335   0.05967   0.97201   0.07535
C          C       0.09437   0.94249   0.98515   0.08621
C          C       0.41107   0.41132   0.87884  -0.13149
C          C       0.58359   0.58173   0.90580  -0.14079
C          C       0.41509   0.58402   0.91609  -0.13887
C          C       0.58692   0.41136   0.89186  -0.13434
C          C       0.91017   0.91133   0.87138  -0.13303
C          C       0.08486   0.08113   0.90187  -0.14192
C          C       0.91658   0.08386   0.90956  -0.13781
C          C       0.08444   0.90899   0.87085  -0.13428
C          C       0.39054   0.38376   0.87149  -0.12724
C          C       0.60403   0.60904   0.90989  -0.12190
C          C       0.39378   0.61087   0.92166  -0.12287
C          C       0.60818   0.38447   0.88675  -0.13022
C          C       0.88978   0.88378   0.86557  -0.12736
C          C       0.10614   0.10810   0.90896  -0.12109
C          C       0.89646   0.11173   0.91922  -0.12528
C          C       0.10471   0.88116   0.86141  -0.12925
C          C       0.36128   0.38856   0.98551   0.06015
C          C       0.63845   0.61358   0.97991   0.06161
C          C       0.35929   0.61411   0.98798   0.06136
C          C       0.63902   0.39056   0.99220   0.06290
C          C       0.86061   0.88880   0.98050   0.06029
C          C       0.14071   0.11154   0.97633   0.06088
C          C       0.86208   0.11611   0.98774   0.06364
C          C       0.13561   0.88583   0.96519   0.06293
C          C       0.35310   0.42158   0.60046  -0.10226
C          C       0.65329   0.58716   0.54039  -0.11840
C          C       0.34815   0.58604   0.53187  -0.11847
C          C       0.64787   0.41914   0.60517  -0.10331
C          C       0.85280   0.91817   0.56789  -0.10382
C          C       0.15104   0.08923   0.51753  -0.12131
C          C       0.84747   0.08495   0.54636  -0.11677
C          C       0.14866   0.92058   0.60403  -0.10428
C          C       0.37447   0.44832   0.60602  -0.12690
C          C       0.63319   0.55961   0.53437  -0.11801
C          C       0.36881   0.55917   0.53139  -0.11960
C          C       0.62777   0.44669   0.60957  -0.12678
C          C       0.87417   0.94516   0.57697  -0.12270
C          C       0.13196   0.06125   0.51442  -0.11654
C          C       0.86830   0.05767   0.53858  -0.11896
C          C       0.12839   0.94788   0.60560  -0.12706
C          C       0.34187   0.35830   0.97479   0.00993
C          C       0.65829   0.64311   0.98500   0.01692
C          C       0.33908   0.64330   0.99242   0.01568
C          C       0.65921   0.36095   0.98352   0.01167
C          C       0.84090   0.85874   0.97137   0.01213
C          C       0.16000   0.14181   0.98789   0.01509
C          C       0.84298   0.14624  -0.00347   0.01553
C          C       0.15507   0.85569   0.95497   0.00863
C          C       0.72576   0.72715   0.51612  -0.03601
C          C       0.27161   0.27882   0.50873  -0.03390
C          C       0.72305   0.27425   0.52859  -0.03227
C          C       0.27577   0.72680   0.51827  -0.03081
C          C       0.22017   0.23178   0.51615  -0.03714
C          C       0.77537   0.77545   0.50705  -0.03634
C          C       0.22544   0.77418   0.50538  -0.03038
C          C       0.77404   0.22670   0.53801  -0.03642
C          C       0.71495   0.75605   0.48660  -0.09513
C          C       0.28119   0.24971   0.53928  -0.09367
C          C       0.71317   0.24571   0.56374  -0.09349
C          C       0.28622   0.75864   0.52088  -0.09040
C          C       0.21077   0.26097   0.48604  -0.09318
C          C       0.78622   0.74675   0.53801  -0.08928
C          C       0.21495   0.74214   0.49904  -0.08415
C          C       0.78355   0.25516   0.50135  -0.09955
C          C       0.73944   0.78005   0.48260  -0.12095
C          C       0.25576   0.22665   0.54477  -0.12411
C          C       0.73839   0.22233   0.56865  -0.12197
C          C       0.26133   0.78220   0.51614  -0.12547
C          C       0.23607   0.28443   0.48349  -0.12431
C          C       0.76167   0.72304   0.54387  -0.12361
C          C       0.23986   0.71874   0.50549  -0.12943
C          C       0.75851   0.27855   0.49603  -0.12552
C          C       0.69729   0.70212   0.50816   0.42129
C          C       0.30043   0.30126   0.49281   0.42745
C          C       0.69522   0.29752   0.51024   0.42791
C          C       0.30453   0.70246   0.51595   0.42407
C          C       0.19117   0.20706   0.50588   0.41999
C          C       0.80360   0.79804   0.48618   0.42994
C          C       0.19762   0.79704   0.48355   0.42551
C          C       0.80329   0.20244   0.53311   0.42262
C          C       0.48260   0.50116   0.51885  -0.00229
C          C       0.52024   0.50099   0.51675  -0.00338
C          C       0.98275  -0.00009   0.50539  -0.00228
C          C       0.02034   0.00041   0.50446  -0.00376
C          C       0.40911   0.50262   0.99206  -0.08500
C          C       0.58985   0.50213   0.99573  -0.09398
C          C       0.90863   0.00249   0.98543  -0.09745
C          C       0.08928   0.00009   0.98155  -0.09049
N          N       0.68997   0.64859   0.05293  -0.14829
N          N       0.31427   0.36156   0.07567  -0.15155
N          N       0.68844   0.36506   0.07444  -0.15348
N          N       0.30820   0.64941   0.06728  -0.15026
N          N       0.19123   0.14816   0.06059  -0.14929
N          N       0.81174   0.86268   0.06191  -0.15288
N          N       0.18289   0.85929   0.05603  -0.14981
N          N       0.81266   0.15351   0.07684  -0.14632
N          N       0.20894   0.17671   0.06730  -0.23381
N          N       0.79336   0.83437   0.05544  -0.25042
N          N       0.20111   0.83092   0.04810  -0.24833
N          N       0.79457   0.18151   0.07871  -0.23284
N          N       0.70828   0.67642   0.05431  -0.23122
N          N       0.29629   0.33289   0.06590  -0.24423
N          N       0.70732   0.33680   0.06327  -0.25270
N          N       0.28950   0.67681   0.06560  -0.23649
N          N       0.69022   0.64712   0.54918  -0.14736
N          N       0.31164   0.36360   0.57023  -0.15249
N          N       0.68716   0.35973   0.57573  -0.15319
N          N       0.31196   0.64751   0.55691  -0.14584
N          N       0.18322   0.15312   0.55771  -0.13886
N          N       0.81327   0.85979   0.54598  -0.15078
N          N       0.18789   0.86038   0.57753  -0.15183
N          N       0.81101   0.14740   0.57542  -0.14599
N          N       0.20047   0.18189   0.56588  -0.22471
N          N       0.79386   0.83214   0.53924  -0.24920
N          N       0.20551   0.83167   0.57008  -0.24361
N          N       0.79319   0.17568   0.57920  -0.23202
N          N       0.70797   0.67540   0.55317  -0.22959
N          N       0.29220   0.33591   0.56317  -0.24724
N          N       0.70615   0.33141   0.56362  -0.25084
N          N       0.29371   0.67532   0.55761  -0.23398
O          O       0.16832   0.20672   0.97413  -0.43823
O          O       0.83166   0.78893   0.92269  -0.44827
O          O       0.16504   0.78468   0.88601  -0.44939
O          O       0.83496   0.21098   0.98107  -0.43959
O          O       0.66647   0.70839   0.98171  -0.44151
O          O       0.33181   0.28700   0.89771  -0.44859
O          O       0.66894   0.29102   0.93046  -0.44832
O          O       0.32990   0.70703   0.97308  -0.43979
O          O       0.16192   0.20900   0.44268  -0.44080
O          O       0.83279   0.78676   0.42518  -0.44834
O          O       0.17059   0.78543   0.39377  -0.45022
O          O       0.83331   0.20620   0.48683  -0.43757
O          O       0.66707   0.70545   0.46139  -0.43853
O          O       0.32878   0.28919   0.42071  -0.44743
O          O       0.66556   0.28708   0.44954  -0.44969
O          O       0.33503   0.70657   0.47658  -0.43830

