data_crystal

_audit_creation_method 'AiiDA-DDEC plugin'

_cell_length_a        24.86055
_cell_length_b        23.72958
_cell_length_c         9.19051

_cell_angle_alpha     89.10635
_cell_angle_beta     93.20698
_cell_angle_gamma     97.95694

_symmetry_space_group_name_Hall 'P 1'
_symmetry_space_group_name_H-M  'P 1'

loop_
_symmetry_equiv_pos_as_xyz
 'x,y,z'

loop_
_atom_site_label
_atom_site_type_symbol
_atom_site_fract_x
_atom_site_fract_y
_atom_site_fract_z
_atom_site_charge
H          H       0.83077   0.67183   0.09291   0.08411
H          H       0.16683   0.33220   0.41330   0.08516
H          H       0.90397   0.56808   0.40601   0.28833
H          H       0.09425   0.43427   0.09754   0.28974
H          H       0.92768   0.47197   0.42520   0.12089
H          H       0.06981   0.53054   0.07515   0.12419
H          H       0.00131   0.59435   0.11953   0.13679
H          H       0.99666   0.40869   0.38226   0.13375
H          H       0.70535   0.23522   0.20580   0.08340
H          H       0.29732   0.76838   0.32046   0.08518
H          H       0.59636   0.09291   0.07005   0.30167
H          H       0.41393   0.90404   0.43092   0.29363
H          H       0.59177   0.01134   0.39180   0.13008
H          H       0.41562   0.98635   0.10179   0.12744
H          H       0.48863   0.06441   0.03984   0.12740
H          H       0.51868   0.93333   0.45459   0.12229
H          H       0.44139   0.79834   0.43777   0.12288
H          H       0.56436   0.20303   0.06503   0.12062
H          H       0.32614   0.68916   0.16515   0.11129
H          H       0.66942   0.30883   0.36968   0.11305
H          H       0.50678   0.72810   0.43035   0.11075
H          H       0.49712   0.27160   0.06467   0.11155
H          H       0.39334   0.62210   0.14614   0.11230
H          H       0.59970   0.37348   0.38174   0.10880
H          H       0.56290   0.69128   0.26446   0.11251
H          H       0.43402   0.30728   0.22635   0.11508
H          H       0.39568   0.57591   0.37508   0.10868
H          H       0.60523   0.42125   0.14481   0.10819
H          H       0.36048   0.47485   0.35715   0.11041
H          H       0.63950   0.52247   0.15531   0.11123
H          H       0.66219   0.56544   0.41134   0.10881
H          H       0.33595   0.43452   0.08918   0.10986
H          H       0.64160   0.69431   0.08629   0.11260
H          H       0.35560   0.30665   0.41767   0.11321
H          H       0.76264   0.58361   0.38886   0.11612
H          H       0.23544   0.41826   0.11534   0.11669
H          H       0.74141   0.71186   0.06350   0.11469
H          H       0.25586   0.29094   0.44312   0.11360
H          H       0.83094   0.66976   0.58999   0.08581
H          H       0.16939   0.33651   0.90858   0.08791
H          H       0.90837   0.57445   0.91181   0.28729
H          H       0.09299   0.43503   0.59172   0.28804
H          H       0.93246   0.47642   0.93622   0.12220
H          H       0.06766   0.53142   0.56511   0.12345
H          H      -0.00129   0.59447   0.61113   0.13350
H          H       0.00138   0.41346   0.89072   0.13289
H          H       0.70298   0.23152   0.68175   0.08402
H          H       0.29587   0.76693   0.82383   0.08717
H          H       0.58539   0.09724   0.55695   0.29133
H          H       0.41453   0.90067   0.92918   0.29421
H          H       0.59315   0.00357   0.86351   0.12897
H          H       0.40865   0.99052   0.61805   0.13192
H          H       0.48088   0.06893   0.55367   0.12459
H          H       0.52078   0.92469   0.92723   0.12585
H          H       0.43788   0.79513   0.94457   0.12190
H          H       0.55815   0.19930   0.57106   0.12483
H          H       0.32852   0.69425   0.63909   0.11123
H          H       0.67280   0.30484   0.85382   0.11306
H          H       0.50386   0.72578   0.93182   0.11026
H          H       0.49384   0.26985   0.58015   0.11127
H          H       0.39630   0.62831   0.61649   0.10818
H          H       0.60633   0.37236   0.87430   0.10960
H          H       0.56341   0.69254   0.75463   0.11354
H          H       0.43660   0.30765   0.73723   0.11253
H          H       0.39380   0.57771   0.85076   0.10990
H          H       0.60809   0.42206   0.65333   0.10957
H          H       0.36035   0.47615   0.84196   0.11067
H          H       0.64106   0.52356   0.65877   0.11043
H          H       0.66156   0.56814   0.91136   0.10917
H          H       0.33996   0.43477   0.58504   0.10655
H          H       0.64258   0.69371   0.57671   0.11521
H          H       0.35663   0.30739   0.91585   0.11199
H          H       0.76216   0.58530   0.89105   0.11698
H          H       0.23935   0.42059   0.60803   0.11521
H          H       0.74255   0.71104   0.55742   0.11381
H          H       0.25658   0.29282   0.93762   0.11369
C          C       0.81560   0.64788   0.18909   0.11907
C          C       0.18256   0.35582   0.31729   0.12154
C          C       0.95995   0.53749   0.27574   0.22159
C          C       0.03806   0.46566   0.22639   0.21993
C          C       0.95908   0.48485   0.34889  -0.17393
C          C       0.03871   0.51802   0.15253  -0.17426
C          C       0.00034   0.55386   0.17655  -0.17577
C          C       0.99755   0.44912   0.32510  -0.17064
C          C       0.66368   0.21387   0.21646   0.12795
C          C       0.33892   0.78827   0.30146   0.12508
C          C       0.54450   0.04318   0.21339   0.22040
C          C       0.46264   0.95451   0.28149   0.22257
C          C       0.55300   0.00581   0.32927  -0.17214
C          C       0.45433   0.99160   0.16452  -0.16942
C          C       0.49500   0.03570   0.13071  -0.17047
C          C       0.51236   0.96181   0.36328  -0.17025
C          C       0.37989   0.74893   0.29982   0.04753
C          C       0.62119   0.25142   0.21741   0.04533
C          C       0.43145   0.76011   0.37235  -0.11125
C          C       0.57166   0.24028   0.13486  -0.10873
C          C       0.36596   0.69798   0.22208  -0.13076
C          C       0.63146   0.30046   0.30378  -0.13567
C          C       0.46797   0.72064   0.36792  -0.12917
C          C       0.53389   0.27861   0.13570  -0.12951
C          C       0.40338   0.65999   0.21270  -0.13242
C          C       0.59258   0.33700   0.30962  -0.12421
C          C       0.45472   0.67001   0.28821   0.07038
C          C       0.54381   0.32777   0.22201   0.06932
C          C       0.49295   0.62790   0.28116   0.02228
C          C       0.50536   0.36988   0.22399   0.02464
C          C       0.47397   0.56860   0.28914   0.03349
C          C       0.52528   0.42909   0.22028   0.02917
C          C       0.54838   0.64580   0.26386  -0.18607
C          C       0.44935   0.35249   0.23352  -0.18902
C          C       0.50968   0.52870   0.25714   0.00174
C          C       0.48952   0.46914   0.25021   0.00462
C          C       0.42072   0.54663   0.33256  -0.13502
C          C       0.57931   0.45080   0.18173  -0.13246
C          C       0.58541   0.60739   0.24664   0.02258
C          C       0.41277   0.39119   0.25346   0.02398
C          C       0.56549   0.54829   0.23279   0.02989
C          C       0.43356   0.44975   0.27316   0.02801
C          C       0.40122   0.49001   0.32381  -0.13421
C          C       0.59850   0.50762   0.18750  -0.13501
C          C       0.64458   0.62642   0.24491   0.07479
C          C       0.35326   0.37330   0.25556   0.07530
C          C       0.67977   0.59714   0.33450  -0.13243
C          C       0.31828   0.40320   0.16683  -0.13383
C          C       0.66788   0.67037   0.15417  -0.13802
C          C       0.32955   0.33042   0.34872  -0.13826
C          C       0.73551   0.60738   0.32359  -0.10584
C          C       0.26256   0.39416   0.17979  -0.10695
C          C       0.72418   0.68028   0.14141  -0.11780
C          C       0.27329   0.32165   0.36339  -0.11804
C          C       0.75856   0.64725   0.22138   0.04293
C          C       0.23929   0.35502   0.28337   0.04503
C          C       0.89492   0.60589   0.20935   0.60684
C          C       0.10451   0.39999   0.29829   0.60596
C          C       0.60987   0.12729   0.27415   0.61974
C          C       0.39255   0.87331   0.22595   0.61930
C          C       0.81569   0.64757   0.68845   0.12465
C          C       0.18482   0.35910   0.81073   0.12094
C          C       0.96153   0.54002   0.77818   0.21858
C          C       0.03950   0.46844   0.72565   0.22299
C          C       0.96249   0.48865   0.85580  -0.17264
C          C       0.03812   0.51957   0.64701  -0.17799
C          C      -0.00028   0.55518   0.67251  -0.17011
C          C       0.00094   0.45303   0.83031  -0.17219
C          C       0.66208   0.20954   0.70048   0.12409
C          C       0.33686   0.78756   0.80088   0.12596
C          C       0.54133   0.04162   0.70585   0.22266
C          C       0.46036   0.95253   0.77657   0.21922
C          C       0.55268   0.00065   0.81051  -0.16928
C          C       0.44911   0.99322   0.67109  -0.17271
C          C       0.48936   0.03751   0.63619  -0.16989
C          C       0.51241   0.95638   0.84540  -0.17106
C          C       0.37878   0.74936   0.79255   0.04821
C          C       0.61992   0.24714   0.71217   0.04593
C          C       0.42913   0.75884   0.87183  -0.11440
C          C       0.56834   0.23679   0.63917  -0.11055
C          C       0.36704   0.70132   0.70287  -0.13500
C          C       0.63331   0.29696   0.79481  -0.13842
C          C       0.46619   0.71993   0.86402  -0.13013
C          C       0.53220   0.27670   0.64464  -0.13096
C          C       0.40493   0.66390   0.69132  -0.12712
C          C       0.59621   0.33532   0.80486  -0.12779
C          C       0.45468   0.67162   0.77486   0.06642
C          C       0.54545   0.32704   0.72596   0.06827
C          C       0.49294   0.62928   0.76840   0.02467
C          C       0.50790   0.37020   0.73016   0.02354
C          C       0.47400   0.56992   0.77695   0.03009
C          C       0.52739   0.42962   0.72394   0.03025
C          C       0.54857   0.64716   0.75433  -0.18719
C          C       0.45187   0.35292   0.74031  -0.18675
C          C       0.51041   0.52975   0.75183   0.00461
C          C       0.49101   0.46991   0.74870   0.00253
C          C       0.42010   0.54819   0.81574  -0.13084
C          C       0.58147   0.45157   0.68666  -0.13555
C          C       0.58582   0.60869   0.74101   0.02072
C          C       0.41488   0.39166   0.75406   0.02063
C          C       0.56631   0.54946   0.72980   0.02942
C          C       0.43492   0.45059   0.76908   0.03151
C          C       0.40143   0.49129   0.81132  -0.13609
C          C       0.59997   0.50858   0.68968  -0.13446
C          C       0.64495   0.62780   0.74099   0.07773
C          C       0.35547   0.37375   0.75293   0.07766
C          C       0.67968   0.59921   0.83378  -0.13410
C          C       0.32130   0.40375   0.66198  -0.13207
C          C       0.66858   0.67076   0.64810  -0.14074
C          C       0.33100   0.33120   0.84558  -0.13849
C          C       0.73546   0.60909   0.82430  -0.10382
C          C       0.26553   0.39576   0.67345  -0.10250
C          C       0.72495   0.68045   0.63707  -0.11521
C          C       0.27464   0.32325   0.85823  -0.11811
C          C       0.75890   0.64808   0.72068   0.03917
C          C       0.24137   0.35711   0.77688   0.04267
C          C       0.89352   0.60390   0.70772   0.60792
C          C       0.10728   0.40362   0.79373   0.61060
C          C       0.61232   0.12095   0.76488   0.61903
C          C       0.38901   0.87264   0.72399   0.61838
N          N       0.91905   0.57054   0.30406  -0.37945
N          N       0.07923   0.43275   0.19961  -0.38267
N          N       0.58660   0.08713   0.17769  -0.43333
N          N       0.42073   0.91125   0.32153  -0.42959
N          N       0.84509   0.61627   0.26584  -0.38904
N          N       0.15377   0.38835   0.24157  -0.38867
N          N       0.65818   0.15961   0.23019  -0.33867
N          N       0.34530   0.84205   0.27872  -0.33136
N          N       0.92094   0.57348   0.80748  -0.38231
N          N       0.08051   0.43554   0.69630  -0.38276
N          N       0.58234   0.08583   0.66604  -0.43485
N          N       0.41897   0.90918   0.81931  -0.43517
N          N       0.84510   0.61654   0.76735  -0.39304
N          N       0.15585   0.39118   0.73386  -0.39450
N          N       0.65776   0.15531   0.71172  -0.33346
N          N       0.34219   0.84140   0.77955  -0.33100
O          O       0.91178   0.62169   0.08873  -0.53467
O          O       0.08887   0.38707   0.42199  -0.53590
O          O       0.59440   0.13319   0.39922  -0.54828
O          O       0.40289   0.86902   0.09577  -0.54770
O          O       0.90654   0.61389   0.58045  -0.53810
O          O       0.09359   0.39190   0.91975  -0.53905
O          O       0.60516   0.12035   0.89790  -0.54845
O          O       0.39735   0.86935   0.59222  -0.54598

