data_crystal

_audit_creation_method 'AiiDA-DDEC plugin'

_cell_length_a        40.72676
_cell_length_b        40.68377
_cell_length_c         7.96539

_cell_angle_alpha     89.77838
_cell_angle_beta     91.05520
_cell_angle_gamma     120.30217

_symmetry_space_group_name_Hall 'P 1'
_symmetry_space_group_name_H-M  'P 1'

loop_
_symmetry_equiv_pos_as_xyz
 'x,y,z'

loop_
_atom_site_label
_atom_site_type_symbol
_atom_site_fract_x
_atom_site_fract_y
_atom_site_fract_z
_atom_site_charge
H          H       0.39764   0.64143   0.25657   0.11411
H          H       0.35638   0.75575   0.21908   0.11366
H          H       0.24605   0.59803   0.22648   0.11327
H          H       0.46446   0.66465   0.17626   0.11035
H          H       0.33192   0.79865   0.13850   0.10835
H          H       0.20456   0.52938   0.16131   0.10470
H          H       0.50024   0.76945   0.44203   0.12053
H          H       0.23184   0.73093   0.42700   0.11977
H          H       0.26983   0.50266   0.50780   0.12061
H          H       0.43209   0.74292   0.03200   0.11201
H          H       0.25677   0.68715  -0.00290   0.11242
H          H       0.31469   0.57083   0.01787   0.11418
H          H       0.57255   0.73872   0.17258   0.07262
H          H       0.25844   0.83352   0.15778   0.07232
H          H       0.16817   0.42231   0.22333   0.07291
H          H       0.49098   0.66000   0.43174   0.10349
H          H       0.33930   0.82989   0.40066   0.10499
H          H       0.17326   0.50915   0.44059   0.10492
H          H       0.48423   0.59648   0.45787   0.10526
H          H       0.40301   0.88690   0.42994   0.10586
H          H       0.11793   0.51815   0.44593   0.10647
H          H       0.58612   0.63381   0.17823   0.11454
H          H       0.36434   0.95322   0.16141   0.11451
H          H       0.05049   0.41271   0.17814   0.11615
H          H       0.59230   0.69726   0.14564   0.10495
H          H       0.30063   0.89577   0.12680   0.10526
H          H       0.10646   0.40413   0.16780   0.10563
H          H       0.44620   0.42559   0.33308   0.11627
H          H       0.57269   0.02106   0.32188   0.11686
H          H       0.98785   0.55860   0.26790   0.11290
H          H       0.43097   0.36260   0.22604   0.10402
H          H       0.63551   0.07017   0.22336   0.10356
H          H       0.93818   0.57117   0.16317   0.10216
H          H       0.54884   0.40694   0.11338   0.10389
H          H       0.59222   0.14587   0.13173   0.10443
H          H       0.85942   0.45073   0.12257   0.10533
H          H       0.56309   0.47057   0.20084   0.10517
H          H       0.52878   0.09543   0.21274   0.10527
H          H       0.91018   0.43844   0.20559   0.10408
H          H       0.44768   0.32968   0.54016   0.06847
H          H       0.66738   0.11237   0.55158   0.06890
H          H       0.88180   0.54904   0.49938   0.06947
H          H       0.50505   0.28049   0.25757   0.12392
H          H       0.72235   0.22994   0.24477   0.12397
H          H       0.77821   0.49985   0.21016   0.11906
H          H       0.56830   0.28554   0.30203   0.11293
H          H       0.71943   0.28951   0.27938   0.11334
H          H       0.71776   0.43874   0.25992   0.11316
H          H       0.62204   0.38055   0.51667   0.11302
H          H       0.61842   0.23666   0.48032   0.11270
H          H       0.75882   0.37444   0.49797   0.11285
H          H       0.56035   0.37740   0.45687   0.11272
H          H       0.62320   0.17914   0.42313   0.10723
H          H       0.81544   0.43653   0.42361   0.11122
H          H       0.63331   0.58050   0.02618   0.11436
H          H       0.41913   0.05634   0.00771   0.11402
H          H       0.94282   0.36475   0.01933   0.11311
H          H       0.58821   0.50377   0.44748   0.14468
H          H       0.49543   0.08418   0.45301   0.14432
H          H       0.92087   0.41717   0.43157   0.14345
H          H       0.40739   0.48608   0.07501   0.11505
H          H       0.51239   0.92420   0.05856   0.11569
H          H       0.08701   0.59449   0.06807   0.11639
H          H       0.45213   0.56080   0.16868   0.14559
H          H       0.43814   0.89262   0.15160   0.14594
H          H       0.11519   0.54920   0.17002   0.14758
H          H       0.39845   0.64437   0.72250   0.11285
H          H       0.35871   0.75732   0.72512   0.11406
H          H       0.24071   0.60016   0.75121   0.11351
H          H       0.46580   0.66899   0.64823   0.10694
H          H       0.33391   0.79955   0.63863   0.10861
H          H       0.19627   0.53195   0.68504   0.10883
H          H       0.50026   0.76641   0.96725   0.12039
H          H       0.23270   0.73101   0.92004   0.12061
H          H       0.26888   0.50173   0.96019   0.12172
H          H       0.43230   0.74715   0.50968   0.11389
H          H       0.25541   0.68628   0.49804   0.11257
H          H       0.31366   0.57215   0.56115   0.11179
H          H       0.57433   0.74021   0.68558   0.07283
H          H       0.25841   0.83153   0.63266   0.07329
H          H       0.16486   0.42432   0.68883   0.07330
H          H       0.48919   0.66030   0.92267   0.10632
H          H       0.33727   0.83120   0.90767   0.10446
H          H       0.16635   0.50458   0.94999   0.10430
H          H       0.48138   0.59630   0.94777   0.10601
H          H       0.39982   0.88929   0.94657   0.10454
H          H       0.10922   0.51086   0.96811   0.10386
H          H       0.58663   0.63436   0.69331   0.11534
H          H       0.36289   0.95255   0.64297   0.11461
H          H       0.04617   0.41187   0.65522   0.11436
H          H       0.59396   0.69842   0.66288   0.10465
H          H       0.30021   0.89407   0.60056   0.10315
H          H       0.10386   0.40623   0.63140   0.10303
H          H       0.44577   0.42551   0.81873   0.11387
H          H       0.57007   0.01923   0.84632   0.11208
H          H       0.98070   0.55295   0.79251   0.11302
H          H       0.43228   0.36307   0.71386   0.10300
H          H       0.63345   0.06565   0.74174   0.10394
H          H       0.93250   0.56657   0.67647   0.10367
H          H       0.55144   0.40837   0.62757   0.10418
H          H       0.59376   0.14316   0.62402   0.10512
H          H       0.85404   0.44654   0.61627   0.10337
H          H       0.56414   0.47159   0.71165   0.10496
H          H       0.52967   0.09525   0.71157   0.10552
H          H       0.90369   0.43330   0.71098   0.10564
H          H       0.44530   0.32938   0.03522   0.06926
H          H       0.66910   0.11899   0.05194   0.06879
H          H       0.88633   0.55373   0.00736   0.06678
H          H       0.50312   0.27566   0.75223   0.12272
H          H       0.72082   0.22208   0.75465   0.12053
H          H       0.77378   0.49496   0.72322   0.12366
H          H       0.56455   0.27656   0.79447   0.11379
H          H       0.71809   0.28139   0.79882   0.11229
H          H       0.71494   0.43297   0.77915   0.11186
H          H       0.61981   0.38414   0.98745   0.11266
H          H       0.61508   0.23944   0.99109   0.11395
H          H       0.76108   0.37828   0.98900   0.11266
H          H       0.55626   0.37714   0.92952   0.10733
H          H       0.62033   0.18185   0.94002   0.11127
H          H       0.82009   0.43932   0.92765   0.10939
H          H       0.63328   0.57915   0.52817   0.11305
H          H       0.41989   0.05336   0.51728   0.11352
H          H       0.94868   0.37021   0.50661   0.11487
H          H       0.58895   0.50530   0.94601   0.14443
H          H       0.49477   0.08541   0.95331   0.14475
H          H       0.91385   0.41038   0.94097   0.14498
H          H       0.40720   0.48523   0.57253   0.11502
H          H       0.50901   0.92261   0.57247   0.11561
H          H       0.07779   0.58667   0.55685   0.11446
H          H       0.45096   0.55994   0.66787   0.14543
H          H       0.43451   0.89281   0.65888   0.14472
H          H       0.10710   0.54252   0.66450   0.14484
C          C       0.37026   0.67966   0.41140   0.37867
C          C       0.32144   0.69175   0.39561   0.38288
C          C       0.30903   0.63066   0.41584   0.38015
C          C       0.42041   0.66918   0.29894  -0.10213
C          C       0.32950   0.75100   0.26698  -0.10180
C          C       0.25067   0.57697   0.29015  -0.10300
C          C       0.45784   0.68210   0.25576  -0.17681
C          C       0.31586   0.77508   0.22322  -0.17786
C          C       0.22736   0.53850   0.25449  -0.17550
C          C       0.48725   0.71837   0.30866   0.20919
C          C       0.28064   0.76847   0.28300   0.20931
C          C       0.23360   0.51107   0.33435   0.20709
C          C       0.47748   0.74150   0.40198  -0.16147
C          C       0.25906   0.73600   0.38226  -0.16317
C          C       0.26511   0.52378   0.44544  -0.16337
C          C       0.43980   0.72903   0.43979  -0.09275
C          C       0.27230   0.71137   0.42213  -0.09179
C          C       0.28926   0.56244   0.47622  -0.09518
C          C       0.41080   0.69269   0.38856  -0.00716
C          C       0.30782   0.71867   0.36557  -0.01100
C          C       0.28217   0.58948   0.39971  -0.01095
C          C       0.54570   0.72018   0.23605   0.07136
C          C       0.27786   0.82519   0.21505   0.07031
C          C       0.17696   0.45088   0.27135   0.06890
C          C       0.51165   0.65448   0.37401  -0.11050
C          C       0.34463   0.85660   0.34651  -0.11193
C          C       0.14677   0.48828   0.38029  -0.11059
C          C       0.50779   0.61871   0.38889  -0.13052
C          C       0.38049   0.88867   0.36289  -0.12956
C          C       0.11554   0.49331   0.38372  -0.13056
C          C       0.53400   0.61038   0.31603   0.10258
C          C       0.38846   0.92383   0.29426   0.10040
C          C       0.08048   0.46667   0.30880   0.10019
C          C       0.56556   0.63971   0.23508  -0.12923
C          C       0.35867   0.92631   0.21552  -0.12680
C          C       0.07729   0.43368   0.23681  -0.12737
C          C       0.56886   0.67530   0.21678  -0.11905
C          C       0.32292   0.89387   0.19605  -0.11982
C          C       0.10892   0.42908   0.23038  -0.12092
C          C       0.54137   0.68307   0.28029   0.03937
C          C       0.31543   0.85815   0.25632   0.04068
C          C       0.14461   0.45681   0.29699   0.04151
C          C       0.55310   0.56053   0.36579   0.13196
C          C       0.43822   0.99310   0.34947   0.13330
C          C       0.01161   0.44885   0.34466   0.13417
C          C       0.54740   0.52308   0.35977  -0.01850
C          C       0.47577   0.02503   0.35091  -0.01850
C          C       0.98063   0.45567   0.33808  -0.01494
C          C       0.51276   0.49221   0.29656  -0.05652
C          C       0.50653   0.02189   0.28927  -0.05441
C          C       0.98505   0.49013   0.27186  -0.05477
C          C       0.48614   0.50290   0.24905   0.13436
C          C       0.49570   0.98488   0.23621   0.13381
C          C       0.02275   0.51591   0.22759   0.13289
C          C       0.49184   0.54028   0.25715  -0.02265
C          C       0.45844   0.95279   0.24107  -0.02384
C          C       0.05396   0.50963   0.24204  -0.02609
C          C       0.52673   0.57110   0.31626  -0.05640
C          C       0.42765   0.95629   0.29774  -0.05621
C          C       0.04900   0.47461   0.30074  -0.05578
C          C       0.46853   0.42171   0.28175  -0.12549
C          C       0.57674   0.04810   0.27767  -0.12596
C          C       0.96007   0.53492   0.23345  -0.12685
C          C       0.46020   0.38618   0.22344  -0.13145
C          C       0.61218   0.07600   0.22399  -0.12845
C          C       0.93178   0.54187   0.17647  -0.12839
C          C       0.48850   0.37996   0.15763   0.05339
C          C       0.61877   0.11154   0.16562   0.05471
C          C       0.89504   0.51216   0.13116   0.05800
C          C       0.52617   0.41072   0.16075  -0.11311
C          C       0.58835   0.11868   0.17245  -0.11298
C          C       0.88747   0.47462   0.15278  -0.11471
C          C       0.53428   0.44672   0.21277  -0.13290
C          C       0.55242   0.09019   0.22070  -0.13341
C          C       0.91630   0.46767   0.20320  -0.13138
C          C       0.50553   0.45336   0.26868   0.09711
C          C       0.54541   0.05384   0.26763   0.09860
C          C       0.95358   0.49746   0.24033   0.09988
C          C       0.47501   0.34242   0.07904   0.07412
C          C       0.65627   0.13585   0.09033   0.07374
C          C       0.86987   0.52437   0.05299   0.07181
C          C       0.53031   0.30309   0.19887  -0.17453
C          C       0.69908   0.23240   0.18963  -0.17064
C          C       0.77415   0.47300   0.16295  -0.17147
C          C       0.56551   0.30604   0.22401  -0.08695
C          C       0.69728   0.26527   0.20973  -0.09049
C          C       0.74067   0.43906   0.19066  -0.08832
C          C       0.59815   0.33559   0.14948  -0.01892
C          C       0.66665   0.26783   0.14083  -0.01478
C          C       0.73575   0.40450   0.12910  -0.01463
C          C       0.59472   0.36219   0.04969  -0.09608
C          C       0.63804   0.23689   0.04962  -0.09712
C          C       0.76540   0.40493   0.04030  -0.09693
C          C       0.55933   0.35877   0.02022  -0.18880
C          C       0.64045   0.20432   0.02399  -0.18588
C          C       0.79880   0.43900   0.00921  -0.18820
C          C       0.52668   0.32947   0.09640   0.21596
C          C       0.67059   0.20130   0.09668   0.22039
C          C       0.80388   0.47362   0.07218   0.21996
C          C       0.63467   0.33638   0.15898   0.38203
C          C       0.66647   0.30379   0.15301   0.38132
C          C       0.69938   0.36863   0.14700   0.38016
C          C       0.60516   0.56364   0.47138   0.03487
C          C       0.43533   0.04123   0.46079   0.03743
C          C       0.96205   0.39813   0.45004   0.03625
C          C       0.58184   0.52637   0.42967  -0.24985
C          C       0.47267   0.05553   0.42564  -0.24889
C          C       0.94924   0.42228   0.41013  -0.24764
C          C       0.43503   0.50100   0.13640   0.03871
C          C       0.49757   0.93633   0.12096   0.03889
C          C       0.07332   0.56675   0.12590   0.03814
C          C       0.45814   0.53790   0.18371  -0.25107
C          C       0.46084   0.92186   0.16681  -0.25063
C          C       0.08616   0.54321   0.17623  -0.25087
C          C       0.37033   0.67873   0.90429   0.38282
C          C       0.32252   0.69233   0.89584   0.37974
C          C       0.30856   0.63064   0.90470   0.37853
C          C       0.42096   0.67059   0.77907  -0.10378
C          C       0.33150   0.75221   0.77023  -0.10023
C          C       0.24626   0.57832   0.79911  -0.09694
C          C       0.45869   0.68434   0.73823  -0.18047
C          C       0.31769   0.77598   0.72311  -0.18035
C          C       0.22137   0.54011   0.76329  -0.17983
C          C       0.48782   0.71898   0.80719   0.21221
C          C       0.28190   0.76880   0.77790   0.21230
C          C       0.22915   0.51188   0.82169   0.20870
C          C       0.47768   0.73980   0.91412  -0.16702
C          C       0.26030   0.73655   0.87845  -0.16644
C          C       0.26299   0.52357   0.91575  -0.16281
C          C       0.43977   0.72655   0.95061  -0.09314
C          C       0.27375   0.71226   0.92141  -0.09082
C          C       0.28830   0.56188   0.94797  -0.08935
C          C       0.41095   0.69173   0.88358  -0.01240
C          C       0.30950   0.71973   0.86736  -0.01239
C          C       0.28042   0.58978   0.88876  -0.01114
C          C       0.54674   0.72141   0.74279   0.07012
C          C       0.27773   0.82427   0.69919   0.07409
C          C       0.17277   0.45167   0.74872   0.07344
C          C       0.51027   0.65473   0.86959  -0.11129
C          C       0.34267   0.85746   0.84825  -0.11067
C          C       0.14040   0.48457   0.88327  -0.11028
C          C       0.50586   0.61870   0.88384  -0.12967
C          C       0.37792   0.89014   0.86987  -0.12970
C          C       0.10833   0.48806   0.89395  -0.12991
C          C       0.53276   0.61044   0.81779   0.10092
C          C       0.38614   0.92476   0.79422   0.10095
C          C       0.07409   0.46227   0.81087   0.10075
C          C       0.56544   0.64013   0.74434  -0.12862
C          C       0.35706   0.92614   0.70300  -0.12861
C          C       0.07235   0.43179   0.72139  -0.12937
C          C       0.56938   0.67601   0.72691  -0.11936
C          C       0.32189   0.89314   0.67912  -0.11865
C          C       0.10481   0.42883   0.70794  -0.11788
C          C       0.54139   0.68377   0.78400   0.04087
C          C       0.31432   0.85795   0.74656   0.03825
C          C       0.13966   0.45567   0.78414   0.03904
C          C       0.55256   0.56108   0.86673   0.13125
C          C       0.43650   0.99433   0.85150   0.13138
C          C       0.00506   0.44371   0.85797   0.12867
C          C       0.54735   0.52380   0.85983  -0.01608
C          C       0.47446   0.02569   0.85637  -0.01962
C          C       0.97377   0.45007   0.85123  -0.01944
C          C       0.51284   0.49263   0.79696  -0.05553
C          C       0.50509   0.02167   0.80002  -0.05552
C          C       0.97801   0.48449   0.78538  -0.05837
C          C       0.48594   0.50299   0.75000   0.13413
C          C       0.49366   0.98447   0.74778   0.13492
C          C       0.01540   0.51025   0.73735   0.13622
C          C       0.49106   0.54012   0.75897  -0.02197
C          C       0.45602   0.95301   0.74939  -0.02373
C          C       0.04665   0.50407   0.74894  -0.02184
C          C       0.52574   0.57123   0.81864  -0.05593
C          C       0.42539   0.95728   0.80147  -0.05431
C          C       0.04205   0.46941   0.80960  -0.05357
C          C       0.46889   0.42209   0.77410  -0.12279
C          C       0.57503   0.04603   0.79451  -0.12178
C          C       0.95338   0.52961   0.74991  -0.12294
C          C       0.46146   0.38679   0.71687  -0.12936
C          C       0.61075   0.07239   0.73698  -0.13135
C          C       0.92590   0.53715   0.68671  -0.12910
C          C       0.49050   0.38067   0.65965   0.05571
C          C       0.61836   0.10754   0.66918   0.05560
C          C       0.88969   0.50780   0.63307   0.05601
C          C       0.52802   0.41171   0.66833  -0.11381
C          C       0.58888   0.11607   0.67153  -0.11426
C          C       0.88175   0.47007   0.65294  -0.11567
C          C       0.53533   0.44756   0.71888  -0.13398
C          C       0.55264   0.08907   0.72348  -0.13314
C          C       0.90986   0.46258   0.70918  -0.13512
C          C       0.50595   0.45395   0.76798   0.09820
C          C       0.54445   0.05285   0.77873   0.09770
C          C       0.94674   0.49207   0.75355   0.09847
C          C       0.47732   0.34273   0.58532   0.07239
C          C       0.65562   0.13024   0.58930   0.07293
C          C       0.86506   0.52026   0.55095   0.07408
C          C       0.52934   0.29842   0.70070  -0.16985
C          C       0.69866   0.22567   0.69434  -0.17461
C          C       0.77028   0.46843   0.67431  -0.17424
C          C       0.56352   0.29911   0.72503  -0.08973
C          C       0.69694   0.25851   0.71951  -0.08940
C          C       0.73768   0.43392   0.70602  -0.08643
C          C       0.59733   0.32911   0.66050  -0.01322
C          C       0.66758   0.26250   0.64513  -0.01584
C          C       0.73366   0.39965   0.64522  -0.01660
C          C       0.59596   0.35817   0.57106  -0.09523
C          C       0.64032   0.23299   0.54292  -0.09710
C          C       0.76277   0.40096   0.54910  -0.09757
C          C       0.56157   0.35695   0.54138  -0.18604
C          C       0.64249   0.20042   0.51352  -0.18890
C          C       0.79488   0.43557   0.51162  -0.18635
C          C       0.52769   0.32729   0.60826   0.21697
C          C       0.67119   0.19589   0.59230   0.21901
C          C       0.79962   0.46984   0.57741   0.21937
C          C       0.63359   0.32940   0.67200   0.38138
C          C       0.66672   0.29810   0.66310   0.38152
C          C       0.69832   0.36298   0.66662   0.38169
C          C       0.60514   0.56488   0.97005   0.03394
C          C       0.43430   0.04342   0.95571   0.03273
C          C       0.95593   0.39266   0.96329   0.03621
C          C       0.58207   0.52754   0.92863  -0.24987
C          C       0.47173   0.05684   0.92618  -0.24808
C          C       0.94252   0.41626   0.92147  -0.25279
C          C       0.43467   0.50038   0.63535   0.03948
C          C       0.49459   0.93533   0.63367   0.03714
C          C       0.06495   0.55990   0.62292   0.03977
C          C       0.45729   0.53727   0.68380  -0.25072
C          C       0.45780   0.92167   0.67619  -0.24915
C          C       0.07827   0.53691   0.67541  -0.24966
N          N       0.52458   0.73518   0.25297  -0.28067
N          N       0.26317   0.78891   0.23129  -0.28064
N          N       0.21326   0.47236   0.29258  -0.27942
N          N       0.48992   0.32156   0.05560  -0.26901
N          N       0.67737   0.17166   0.06310  -0.27165
N          N       0.83379   0.50945   0.03028  -0.27098
N          N       0.29502   0.65438   0.40299  -0.42264
N          N       0.34634   0.64185   0.42586  -0.42045
N          N       0.35940   0.70592   0.39991  -0.42202
N          N       0.66715   0.37039   0.15352  -0.42439
N          N       0.63272   0.30222   0.16136  -0.42283
N          N       0.70056   0.33613   0.14716  -0.42291
N          N       0.52562   0.73646   0.75714  -0.27813
N          N       0.26400   0.78818   0.71772  -0.27864
N          N       0.20892   0.47377   0.77080  -0.28176
N          N       0.49158   0.32109   0.56751  -0.27067
N          N       0.67726   0.16576   0.55748  -0.27109
N          N       0.82895   0.50564   0.53080  -0.26861
N          N       0.29549   0.65516   0.89981  -0.42064
N          N       0.34569   0.64087   0.90834  -0.42372
N          N       0.36031   0.70571   0.90182  -0.42224
N          N       0.66568   0.36374   0.67456  -0.42092
N          N       0.63241   0.29563   0.66701  -0.42621
N          N       0.70048   0.33095   0.66452  -0.42389
O          O       0.58869   0.58544   0.43376  -0.12762
O          O       0.41341   0.00319   0.41662  -0.12868
O          O      -0.00008   0.41317   0.41039  -0.12866
O          O       0.45098   0.47878   0.17454  -0.12807
O          O       0.51961   0.97466   0.15995  -0.12717
O          O       0.03496   0.55121   0.15563  -0.12469
O          O       0.58821   0.58631   0.93377  -0.12644
O          O       0.41183   0.00545   0.91074  -0.12880
O          O       0.99395   0.40834   0.92589  -0.12722
O          O       0.45108   0.47861   0.67389  -0.12591
O          O       0.51733   0.97345   0.67517  -0.12717
O          O       0.02689   0.54474   0.65868  -0.12636

