data_crystal

_audit_creation_method 'AiiDA-DDEC plugin'

_cell_length_a        38.77469
_cell_length_b        38.67934
_cell_length_c         8.95881

_cell_angle_alpha     90.51428
_cell_angle_beta     89.02542
_cell_angle_gamma     120.66169

_symmetry_space_group_name_Hall 'P 1'
_symmetry_space_group_name_H-M  'P 1'

loop_
_symmetry_equiv_pos_as_xyz
 'x,y,z'

loop_
_atom_site_label
_atom_site_type_symbol
_atom_site_fract_x
_atom_site_fract_y
_atom_site_fract_z
_atom_site_charge
H          H       0.92764   0.23542   0.51439   0.06444
H          H       0.76755   0.69640   0.46452   0.06329
H          H       0.31248   0.07412   0.51576   0.06599
H          H       0.06797   0.76312   0.01182   0.06463
H          H       0.23352   0.30762   0.00959   0.06547
H          H       0.69465   0.92630   0.01270   0.06432
H          H       0.92382   0.22395   0.31934   0.07447
H          H       0.77918   0.69822   0.26957   0.07550
H          H       0.30326   0.07907   0.32424   0.07425
H          H       0.07556   0.77592   0.81801   0.07399
H          H       0.22309   0.30313   0.81432   0.07303
H          H       0.70263   0.92191   0.81817   0.07316
H          H       0.93154   0.29993   0.45969   0.06740
H          H       0.70300   0.63329   0.42544   0.06580
H          H       0.37600   0.07690   0.43856   0.06869
H          H       0.06550   0.69885   0.95275   0.06696
H          H       0.29807   0.37022   0.96364   0.06588
H          H       0.63373   0.92926   0.95437   0.06710
H          H       0.89181   0.27638   0.22256   0.10765
H          H       0.72564   0.61195   0.19588   0.10687
H          H       0.38414   0.11586   0.19945   0.10608
H          H       0.10748   0.72476   0.71652   0.10791
H          H       0.27665   0.39104   0.73886   0.10750
H          H       0.62004   0.89002   0.71204   0.10666
H          H       0.93330   0.27869   0.13100   0.07432
H          H       0.72282   0.64868   0.09195   0.07349
H          H       0.34798   0.07046   0.11737   0.07253
H          H       0.06576   0.72074   0.62543   0.07472
H          H       0.27908   0.35418   0.63146   0.07557
H          H       0.65883   0.93356   0.62667   0.07289
H          H       0.99426   0.29037   0.27690   0.12109
H          H       0.71407   0.70301   0.22624   0.12178
H          H       0.30067   0.01035   0.28294   0.11918
H          H       0.00451   0.71061   0.77717   0.12159
H          H       0.28789   0.29846   0.77599   0.12036
H          H       0.70895   0.99250   0.78247   0.12112
H          H       0.99436   0.29490   0.47411   0.10918
H          H       0.70746   0.70076   0.42306   0.11022
H          H       0.31306   0.00992   0.47248   0.10959
H          H       0.00251   0.70280   0.97266   0.10981
H          H       0.29645   0.30512   0.97077   0.10890
H          H       0.70172   0.99266   0.97854   0.10900
H          H       0.00123   0.33518   0.36047   0.12307
H          H       0.66832   0.66568   0.30779   0.12323
H          H       0.34337   0.00728   0.32763   0.12369
H          H       0.99655   0.66441   0.84784   0.12416
H          H       0.33401   0.33833   0.84288   0.12556
H          H       0.67016  -0.00058   0.85629   0.12487
H          H       0.97410   0.35423   0.17694   0.10256
H          H       0.64769   0.61359   0.14368   0.10330
H          H       0.39343   0.04145   0.15847   0.10147
H          H       0.02730   0.64516   0.66880   0.10163
H          H       0.35275   0.38885   0.65033   0.10088
H          H       0.62057   0.96982   0.67447   0.10220
H          H       0.93246   0.35133   0.27335   0.11431
H          H       0.65102   0.57785   0.25517   0.11346
H          H       0.42874   0.08723   0.24406   0.11541
H          H       0.06860   0.64971   0.76757   0.11462
H          H       0.35276   0.41931   0.79953   0.11172
H          H       0.58316   0.92742   0.77339   0.11432
H          H       0.92962   0.34056   0.07989   0.11631
H          H       0.66082   0.58013   0.06095   0.11692
H          H       0.41795   0.08620   0.05235   0.11679
H          H       0.07332   0.66060   0.57428   0.11682
H          H       0.34143   0.42705   0.61647   0.11878
H          H       0.59023   0.92408   0.57930   0.11683
H          H       0.74949   0.12007   0.35986   0.11409
H          H       0.87977   0.62810   0.36328   0.11404
H          H       0.37568   0.25406   0.37081   0.11381
H          H       0.24925   0.87702   0.88213   0.11034
H          H       0.12217   0.37436   0.86913   0.11236
H          H       0.62589   0.74747   0.83481   0.11225
H          H       0.75481   0.17971   0.50148   0.25512
H          H       0.81888   0.57473   0.49119   0.25393
H          H       0.42805   0.24550   0.51210   0.25500
H          H       0.24553   0.82064   0.00652   0.25084
H          H       0.17842   0.42810   0.00773   0.25475
H          H       0.57233   0.75255   0.97414   0.25345
H          H       0.70650   0.19587   0.54639   0.07880
H          H       0.80190   0.51121   0.54346   0.07891
H          H       0.49274   0.29043   0.57213   0.07890
H          H       0.29289   0.80374   0.04990   0.07818
H          H       0.19564   0.49326   0.05414   0.07953
H          H       0.50760   0.70506   0.01459   0.07768
H          H       0.75493   0.28781   0.29551   0.12397
H          H       0.71187   0.46282   0.29100   0.12150
H          H       0.53673   0.24671   0.30386   0.12369
H          H       0.24625   0.71233   0.79603   0.12498
H          H       0.28362   0.53699   0.78267   0.12424
H          H       0.46509   0.75438   0.77541   0.12386
H          H       0.73174   0.33697   0.28080   0.12687
H          H       0.66406   0.38897   0.27720   0.12728
H          H       0.60983   0.27128   0.27729   0.12529
H          H       0.27100   0.66428   0.77380   0.12715
H          H       0.33357   0.61026   0.75945   0.12776
H          H       0.39243   0.73189   0.76715   0.12698
H          H       0.63397   0.26420   0.58280   0.12582
H          H       0.73642   0.36897   0.58408   0.12749
H          H       0.63537   0.36344   0.60320   0.12744
H          H       0.36692   0.73723   0.07385   0.12701
H          H       0.26737   0.63595   0.08811   0.12815
H          H       0.36591   0.63386   0.06257   0.12704
H          H       0.65698   0.21526   0.59747   0.10789
H          H       0.78363   0.44246   0.59907   0.10862
H          H       0.56264   0.33875   0.63044   0.10872
H          H       0.34216   0.78499   0.09620   0.10739
H          H       0.21764   0.56311   0.11066   0.10866
H          H       0.43811   0.65626   0.07033   0.10806
H          H       0.70752   0.05319   0.42831   0.06266
H          H       0.94649   0.65370   0.44576   0.06309
H          H       0.35323   0.29465   0.45169   0.06231
H          H       0.29041   0.94096   0.95766   0.06102
H          H       0.05732   0.35047   0.93998   0.06246
H          H       0.64431   0.70431   0.90495   0.06243
H          H       0.72992   0.05216   0.25353   0.07249
H          H       0.94536   0.67364   0.26765   0.07183
H          H       0.33290   0.27574   0.27168   0.07473
H          H       0.27046   0.94144   0.77980   0.07369
H          H       0.05718   0.32958   0.76081   0.07248
H          H       0.66821   0.72633   0.73069   0.07168
H          H       0.70732   0.99181   0.50869   0.06019
H          H       0.00907   0.71764   0.50554   0.06040
H          H       0.29458   0.30032   0.52072   0.05920
H          H       0.29560   0.00603   0.02132   0.06072
H          H       0.99309   0.28930   0.00640   0.06044
H          H       0.70099   0.69520   0.97037   0.06105
H          H       0.76538   0.00335   0.34157   0.11092
H          H       0.99480   0.76009   0.32955   0.11113
H          H       0.24677   0.24276   0.35101   0.10988
H          H       0.23992   0.99620   0.84827   0.10980
H          H       0.00425   0.24310   0.83883   0.10750
H          H       0.75308   0.75374   0.82134   0.10922
H          H       0.73312   0.98745   0.18833   0.07168
H          H       0.00987   0.74086   0.17948   0.07093
H          H       0.26627   0.27658   0.19997   0.07189
H          H       0.27355   0.00818   0.69668   0.07353
H          H       0.99321   0.26304   0.68341   0.07190
H          H       0.73275   0.72661   0.65571   0.07263
H          H       0.66384   0.98030   0.21155   0.11682
H          H       0.01354   0.67728   0.21353   0.11638
H          H       0.33093   0.34181   0.21957   0.11676
H          H       0.33858   0.00763   0.72681   0.11598
H          H       0.94977   0.30390   0.85097   0.13069
H          H       0.66631   0.65941   0.66248   0.11825
H          H       0.64672   0.98726   0.38833   0.11612
H          H       0.01231   0.65936   0.39702   0.11625
H          H       0.35557   0.35854   0.39354   0.11466
H          H       0.35343   0.00228   0.90771   0.11589
H          H       0.98697   0.32484   0.70811   0.11756
H          H       0.64034   0.64067   0.83545   0.11542
H          H       0.64959   0.94376   0.35381   0.13236
H          H       0.05409   0.70516   0.33550   0.13171
H          H       0.31099   0.35903   0.36162   0.13221
H          H       0.35566   0.04748   0.85792   0.13088
H          H       0.99500   0.34958   0.88343   0.11564
H          H       0.68407   0.63856   0.79493   0.13045
H          H       0.69067   0.91822   0.30656   0.11323
H          H       0.07976   0.77209   0.28660   0.11246
H          H       0.24106   0.31939   0.31646   0.11323
H          H       0.31889   0.07782   0.80356   0.11316
H          H       0.92258   0.23775   0.79172   0.11458
H          H       0.75077   0.67490   0.73238   0.11534
H          H       0.72155   0.93519   0.46535   0.11879
H          H       0.06389   0.78852   0.44452   0.12056
H          H       0.22741   0.29017   0.48138   0.11542
H          H       0.28733   0.06498   0.96344   0.11845
H          H       0.93467   0.21754   0.94524   0.12011
H          H       0.76835   0.69984   0.90522   0.11709
H          H       0.74154   0.93137   0.29124   0.09987
H          H       0.06580   0.80882   0.26627   0.09986
H          H       0.20128   0.26875   0.31423   0.10580
H          H       0.26950   0.06861   0.78726   0.10412
H          H       0.93253   0.19827   0.76341   0.10124
H          H       0.79361   0.72368   0.73712   0.10338
H          H       0.89175   0.16718   0.46866   0.11236
H          H       0.83444   0.72567   0.44655   0.11382
H          H       0.27706   0.11047   0.47212   0.11480
H          H       0.10615   0.83181   0.97797   0.11455
H          H       0.16546   0.27640   0.96845   0.11441
H          H       0.72514   0.88787   0.97095   0.11540
H          H       0.88059   0.12276   0.65104   0.25193
H          H       0.87604   0.75904   0.64596   0.25333
H          H       0.24287   0.12045   0.66123   0.25276
H          H       0.11647   0.87654   0.16922   0.24641
H          H       0.12016   0.24270   0.15636   0.24909
H          H       0.75646   0.87801   0.14880   0.24495
H          H       0.93016   0.11836   0.77131   0.08485
H          H       0.88110   0.81434   0.76653   0.08635
H          H       0.18580   0.07111   0.78749   0.08499
H          H       0.06645   0.88261   0.28780   0.08544
H          H       0.11469   0.18719   0.27426   0.08318
H          H       0.81103   0.92733   0.27184   0.08274
H          H       0.89481   0.01412   0.62701   0.11071
H          H       0.98746   0.88361   0.63282   0.10965
H          H       0.11992   0.10741   0.63329   0.11108
H          H       0.10455   0.98725   0.14123   0.11084
H          H       0.01187   0.11701   0.12169   0.11014
H          H       0.88041   0.89302   0.12602   0.11061
H          H       0.92950   0.97619   0.65825   0.11896
H          H       0.02525   0.95712   0.66383   0.12014
H          H       0.04621   0.07191   0.65781   0.11924
H          H       0.06949   0.02522   0.16744   0.11846
H          H       0.97386   0.04357   0.15534   0.12004
H          H       0.95379   0.92976   0.15615   0.12056
H          H       0.02115   0.07465   0.91039   0.11755
H          H       0.92538   0.95012   0.90942   0.11918
H          H       0.04835   0.98074   0.92336   0.11851
H          H       0.97467   0.92692   0.41617   0.12003
H          H       0.06972   0.05163   0.41807   0.11824
H          H       0.94625   0.02087   0.41028   0.11911
H          H       0.98768   0.11344   0.87165   0.11803
H          H       0.88667   0.87700   0.86951   0.11779
H          H       0.12179   0.01525   0.89220   0.11575
H          H       0.00877   0.88830   0.38365   0.11702
H          H       0.10863   0.12477   0.37733   0.11712
H          H       0.87326   0.98513   0.37349   0.11868
C          C       0.91769   0.24046   0.40656  -0.00733
C          C       0.76224   0.67809   0.36325  -0.00724
C          C       0.32681   0.08576   0.40582  -0.00693
C          C       0.07977   0.75860   0.90537  -0.00696
C          C       0.23932   0.32459   0.90480  -0.00607
C          C       0.67968   0.91603   0.90435  -0.00489
C          C       0.93923   0.28529   0.37005   0.04258
C          C       0.71743   0.65378   0.33032   0.04364
C          C       0.35192   0.06727   0.35679   0.04371
C          C       0.05854   0.71398   0.86492   0.04337
C          C       0.28426   0.34917   0.87003   0.04275
C          C       0.65686   0.93739   0.86684   0.04333
C          C       0.92474   0.29255   0.22094  -0.15018
C          C       0.70945   0.62830   0.18807  -0.14899
C          C       0.37151   0.08319   0.20219  -0.15107
C          C       0.07454   0.70757   0.71493  -0.15071
C          C       0.29256   0.37439   0.72753  -0.15191
C          C       0.63575   0.92300   0.71559  -0.15099
C          C       0.98473   0.30232   0.37051  -0.41174
C          C       0.70096   0.68235   0.32161  -0.41157
C          C       0.32581   0.02121   0.36059  -0.41011
C          C       0.01306   0.69703   0.86576  -0.41309
C          C       0.30154   0.32121   0.86450  -0.41127
C          C       0.68602   0.98299   0.87154  -0.41308
C          C       0.94124   0.33705   0.18610  -0.36633
C          C       0.66489   0.59856   0.16052  -0.36628
C          C       0.40452   0.07383   0.16230  -0.36689
C          C       0.06000   0.66339   0.67965  -0.36662
C          C       0.33729   0.40382   0.69664  -0.36586
C          C       0.60602   0.93702   0.68421  -0.36545
C          C       0.79159   0.10209   0.42284   0.22241
C          C       0.89786   0.68904   0.42474   0.22229
C          C       0.31440   0.21139   0.43342   0.22261
C          C       0.20717   0.89560   0.94446   0.22121
C          C       0.10263   0.31306   0.92826   0.22182
C          C       0.68617   0.78752   0.90980   0.22647
C          C       0.78050   0.13022   0.38637  -0.25095
C          C       0.86986   0.64949   0.38313  -0.25453
C          C       0.35399   0.22277   0.39493  -0.25498
C          C       0.21801   0.86715   0.90652  -0.25632
C          C       0.13152   0.35292   0.89410  -0.25473
C          C       0.64759   0.77797   0.86849  -0.25730
C          C       0.79730   0.20089   0.32823   0.46474
C          C       0.79979   0.59504   0.31341   0.46342
C          C       0.40770   0.20634   0.33098   0.46475
C          C       0.20102   0.79646   0.84411   0.45955
C          C       0.20270   0.40775   0.84241   0.46067
C          C       0.59597   0.79666   0.81002   0.46348
C          C       0.80898   0.17146   0.37929  -0.11415
C          C       0.82920   0.63696   0.36464  -0.11237
C          C       0.36613   0.19436   0.38347  -0.11460
C          C       0.18919   0.82610   0.89431  -0.11304
C          C       0.17251   0.36573   0.88826  -0.11401
C          C       0.63651   0.80720   0.86501  -0.11114
C          C       0.72190   0.22003   0.46347  -0.02517
C          C       0.77838   0.50089   0.45912  -0.02710
C          C       0.50208   0.27715   0.48273  -0.02551
C          C       0.27787   0.77969   0.96669  -0.02799
C          C       0.21934   0.50225   0.96847  -0.02974
C          C       0.49923   0.72094   0.93500  -0.02603
C          C       0.68144   0.30396   0.43169   0.17471
C          C       0.69703   0.37412   0.43012   0.17420
C          C       0.62729   0.31908   0.43812   0.17276
C          C       0.32060   0.69775   0.92216   0.16660
C          C       0.30382   0.62774   0.92336   0.16743
C          C       0.37430   0.68150   0.91526   0.17043
C          C       0.72859   0.28296   0.35856  -0.10585
C          C       0.71681   0.44201   0.35511  -0.10353
C          C       0.55862   0.27227   0.36842  -0.10723
C          C       0.27262   0.71751   0.85618  -0.10578
C          C       0.28042   0.55896   0.84872  -0.10704
C          C       0.44309   0.72806   0.83775  -0.10597
C          C       0.71562   0.31030   0.35015  -0.18243
C          C       0.69035   0.40093   0.34724  -0.18093
C          C       0.59922   0.28598   0.35369  -0.17672
C          C       0.28650   0.69095   0.84342  -0.18117
C          C       0.30810   0.59964   0.83600  -0.18049
C          C       0.40264   0.71552   0.83350  -0.18288
C          C       0.66036   0.26924   0.51993  -0.18588
C          C       0.73114   0.38950   0.51981  -0.18542
C          C       0.61371   0.33809   0.53723  -0.18262
C          C       0.34082   0.73212   0.01215  -0.18522
C          C       0.27069   0.61425   0.02094  -0.18526
C          C       0.38760   0.66012  -0.00056  -0.18722
C          C       0.67346   0.24187   0.52773  -0.12693
C          C       0.75756   0.43082   0.52768  -0.12764
C          C       0.57287   0.32414   0.55171  -0.12711
C          C       0.32674   0.75873   0.02438  -0.12815
C          C       0.24286   0.57332   0.03284  -0.12794
C          C       0.42824   0.67283   0.00297  -0.12702
C          C       0.70788   0.24824   0.44848   0.04869
C          C       0.75087   0.45782   0.44651   0.05196
C          C       0.54463   0.29125   0.46713   0.05276
C          C       0.29245   0.75193   0.94773   0.05174
C          C       0.24744   0.54499   0.94869   0.05289
C          C       0.45678   0.70711   0.92347   0.05007
C          C       0.72656   0.04335   0.37196  -0.00434
C          C       0.95555   0.68161   0.38362  -0.00470
C          C       0.32518   0.27780   0.38912  -0.00651
C          C       0.27334   0.95179   0.89638  -0.00501
C          C       0.04674   0.32219   0.87773  -0.00504
C          C       0.67356   0.72147   0.84704  -0.00551
C          C       0.70796   0.99785   0.38837   0.04266
C          C       0.00111   0.70948   0.38770   0.04321
C          C       0.30079   0.29880   0.40112   0.04377
C          C       0.29474   0.99763   0.90301   0.04151
C          C       0.00104   0.29617   0.88720   0.04075
C          C       0.69629   0.69882   0.85190   0.04233
C          C       0.73401   0.98347   0.30952  -0.15285
C          C       0.01454   0.74839   0.29922  -0.15080
C          C       0.26038   0.27466   0.32134  -0.14966
C          C       0.27187   0.01379   0.81667  -0.14880
C          C       0.98643   0.25628   0.80324  -0.14859
C          C       0.73757   0.72322   0.77432  -0.14885
C          C       0.66468   0.97620   0.33250  -0.41432
C          C       0.02131   0.68647   0.33055  -0.41370
C          C       0.32606   0.34188   0.34090  -0.41372
C          C       0.33797   0.01470   0.84572  -0.41457
C          C       0.98225   0.32002   0.82939  -0.41204
C          C       0.67025   0.65704   0.78257  -0.41347
C          C       0.72106   0.93972   0.34462  -0.36390
C          C       0.05837   0.78099   0.32537  -0.36541
C          C       0.23114   0.28920   0.35972  -0.36571
C          C       0.28788   0.05865   0.84382  -0.36723
C          C       0.94165   0.22601   0.82702  -0.36531
C          C       0.76379   0.70428   0.78776  -0.36658
C          C       0.84937   0.18521   0.41357   0.21972
C          C       0.81595   0.66436   0.39200   0.22127
C          C       0.33864   0.15366   0.41630   0.21995
C          C       0.14841   0.81298   0.92372   0.22437
C          C       0.18511   0.33813   0.91853   0.22402
C          C       0.66438   0.84709   0.90660   0.22067
C          C       0.86047   0.15702   0.44771  -0.25094
C          C       0.84413   0.70402   0.43058  -0.24771
C          C       0.29890   0.14204   0.45242  -0.25099
C          C       0.13760   0.84152   0.96010  -0.25123
C          C       0.15616   0.29817   0.95011  -0.25185
C          C       0.70312   0.85682   0.94513  -0.25227
C          C       0.84588   0.08620   0.47481   0.45760
C          C       0.91459   0.76024   0.47599   0.45910
C          C       0.24293   0.15657   0.48734   0.45789
C          C       0.15334   0.91276   0.99399   0.45846
C          C       0.08501   0.24157   0.97878   0.45798
C          C       0.75698   0.83980   0.98161   0.45656
C          C       0.83231   0.11568   0.45049  -0.11057
C          C       0.88485   0.71684   0.44630  -0.11085
C          C       0.28631   0.17028   0.45970  -0.10989
C          C       0.16628   0.88261   0.96956  -0.10654
C          C       0.11514   0.28519   0.95467  -0.10841
C          C       0.71458   0.82773   0.94761  -0.10989
C          C       0.91933   0.08941   0.71418  -0.01342
C          C       0.91081   0.83216   0.71320  -0.01370
C          C       0.16908   0.08277   0.72939  -0.01613
C          C       0.07854   0.91164   0.23059  -0.01250
C          C       0.08606   0.16921   0.21659  -0.01471
C          C       0.82883   0.91596   0.21645  -0.01643
C          C       0.97808   0.02271   0.78674   0.17312
C          C       0.97807   0.95917   0.78851   0.17123
C          C       0.04177   0.02354   0.79249   0.17254
C          C       0.01923   0.97873   0.29319   0.17370
C          C       0.01899   0.04210   0.28904   0.17473
C          C       0.95539   0.97776   0.28787   0.17158
C          C       0.92250   0.02713   0.68941  -0.10615
C          C       0.97403   0.89831   0.69394  -0.10456
C          C       0.10395   0.07968   0.69721  -0.10475
C          C       0.07614   0.97431   0.20202  -0.10665
C          C       0.02425   0.10256   0.18774  -0.10244
C          C       0.89509   0.92086   0.18951  -0.10607
C          C       0.94194   0.00583   0.70774  -0.17608
C          C       0.99535   0.93960   0.71225  -0.17310
C          C       0.06262   0.05980   0.71194  -0.17538
C          C       0.05645   0.99561   0.21735  -0.17582
C          C       0.00289   0.06132   0.20699  -0.17593
C          C       0.93621   0.94140   0.20756  -0.17456
C          C       0.99352   0.06135   0.84803  -0.17375
C          C       0.93909   0.93573   0.84842  -0.17104
C          C       0.06391   0.00850   0.85998  -0.17238
C          C       0.00306   0.94021   0.35561  -0.17365
C          C       0.05686   0.06579   0.35344  -0.17322
C          C       0.93191   0.99272   0.34894  -0.17143
C          C       0.97432   0.08303   0.82695  -0.12286
C          C       0.91739   0.89429   0.82685  -0.12485
C          C       0.10543   0.02820   0.84277  -0.12216
C          C       0.02265   0.91862   0.33809  -0.12229
C          C       0.07863   0.10721   0.33150  -0.12267
C          C       0.89061   0.97232   0.32837  -0.12436
C          C       0.93858   0.06644   0.74571   0.04924
C          C       0.93425   0.87485   0.74705   0.04934
C          C       0.12621   0.06391   0.75931   0.05006
C          C       0.05938   0.93508   0.25936   0.04967
C          C       0.06285   0.12634   0.24710   0.04872
C          C       0.87145   0.93609   0.24726   0.05050
N          N       0.76493   0.19810   0.40980  -0.24859
N          N       0.80084   0.56571   0.39973  -0.24710
N          N       0.43715   0.23692   0.41799  -0.24438
N          N       0.23465   0.80117   0.91815  -0.24294
N          N       0.19780   0.43677   0.91812  -0.24615
N          N       0.56496   0.76373   0.88489  -0.24800
N          N       0.75187   0.22404   0.38330  -0.10704
N          N       0.77495   0.52601   0.37466  -0.10471
N          N       0.47653   0.24990   0.39327  -0.10535
N          N       0.24797   0.77543   0.88961  -0.10533
N          N       0.22343   0.47628   0.88975  -0.10324
N          N       0.52595   0.75134   0.85769  -0.10545
N          N       0.87363   0.09775   0.58894  -0.24588
N          N       0.90199   0.77700   0.58695  -0.24500
N          N       0.22548   0.12822   0.60180  -0.24746
N          N       0.12490   0.90201   0.10838  -0.24281
N          N       0.09562   0.22463   0.09295  -0.24349
N          N       0.77384   0.86913   0.09261  -0.24061
N          N       0.89102   0.07571   0.61661  -0.11335
N          N       0.92478   0.81685   0.61749  -0.11468
N          N       0.18570   0.11143   0.63162  -0.11094
N          N       0.10806   0.92484   0.13497  -0.11397
N          N       0.07316   0.18454   0.11963  -0.11256
N          N       0.81348   0.88649   0.12171  -0.11329
N          N       0.66875   0.33234   0.42499  -0.14274
N          N       0.33310   0.66918   0.91261  -0.12145
N          N      -0.00085   0.00177   0.80036  -0.11581
N          N       0.99783  -0.00044   0.30200  -0.11717
O          O       0.81380   0.22430   0.22400  -0.44294
O          O       0.77760   0.58707   0.20663  -0.44331
O          O       0.41506   0.19128   0.22304  -0.44236
O          O       0.18382   0.77096   0.74734  -0.44037
O          O       0.22866   0.41627   0.74578  -0.44131
O          O       0.59049   0.81445   0.70903  -0.44253
O          O       0.76541   0.06190   0.43983  -0.19625
O          O       0.93737   0.70261   0.45114  -0.19763
O          O       0.30126   0.23795   0.45120  -0.19468
O          O       0.23403   0.93564   0.96280  -0.19487
O          O       0.06257   0.29915   0.94153  -0.19310
O          O       0.69778   0.75977   0.91888  -0.19031
O          O       0.83507   0.05579   0.39950  -0.45117
O          O       0.94638   0.77967   0.40639  -0.45135
O          O       0.22412   0.16818   0.41506  -0.44981
O          O       0.16556   0.94323   0.91820  -0.45119
O          O       0.05497   0.22224   0.90302  -0.45008
O          O       0.77587   0.82639   0.91710  -0.45360
O          O       0.87517   0.22579   0.41428  -0.19657
O          O       0.77569   0.64983   0.38493  -0.19998
O          O       0.35380   0.12865   0.41462  -0.19888
O          O       0.12194   0.77262   0.91856  -0.19579
O          O       0.22535   0.35267   0.91894  -0.19523
O          O       0.65090   0.87348   0.91074  -0.19857

