data_crystal

_audit_creation_method 'AiiDA-DDEC plugin'

_cell_length_a        30.47323
_cell_length_b        30.07005
_cell_length_c         9.67560

_cell_angle_alpha     138.48127
_cell_angle_beta     66.90271
_cell_angle_gamma     120.39165

_symmetry_space_group_name_Hall 'P 1'
_symmetry_space_group_name_H-M  'P 1'

loop_
_symmetry_equiv_pos_as_xyz
 'x,y,z'

loop_
_atom_site_label
_atom_site_type_symbol
_atom_site_fract_x
_atom_site_fract_y
_atom_site_fract_z
_atom_site_charge
H          H       0.58805   0.05601   0.95267   0.09946
H          H       0.93269   0.54935   0.08346   0.11699
H          H       0.47139   0.38976   0.93518   0.11009
H          H       0.40670   0.93502   0.02170   0.09528
H          H       0.05902   0.46279   0.95979   0.11776
H          H       0.51348   0.59878   0.05311   0.10854
H          H       0.26490   0.69921   0.02383   0.11283
H          H       0.29523   0.57599   0.03291   0.12850
H          H       0.41937   0.72029   0.98145   0.11553
H          H       0.72823   0.30199   0.98446   0.11260
H          H       0.69483   0.42159   0.96968   0.12921
H          H       0.57274   0.27302   0.00884   0.11471
H          H       0.20691   0.57963   0.11643   0.09871
H          H       0.43793   0.65039   0.97543   0.08042
H          H       0.33362   0.77897   0.98776   0.08364
H          H       0.78477   0.42140   0.89374   0.09459
H          H       0.55171   0.33856   0.00823   0.08293
H          H       0.66067   0.22462   0.03333   0.08538
H          H       0.40248   0.41496   0.95269   0.13582
H          H       0.56429   0.95792   0.92538   0.12159
H          H       0.02424   0.59887   0.01760   0.12611
H          H       0.58197   0.57378   0.03807   0.13395
H          H       0.43057   0.03285   0.04908   0.12128
H          H       0.96785   0.41368   0.02534   0.12404
H          H       0.45649   0.58651   0.96762   0.24138
H          H       0.39641   0.85592   0.96878   0.24889
H          H       0.12656   0.56254   0.10890   0.27212
H          H       0.52982   0.40029   0.01387   0.24541
H          H       0.59732   0.14780   0.05831   0.24435
H          H       0.86645   0.43716   0.89861   0.27082
H          H       0.58863   0.05737   0.44409   0.09771
H          H       0.94108   0.53898   0.55576   0.11684
H          H       0.48885   0.41467   0.49482   0.10522
H          H       0.40801   0.94088   0.53278   0.09827
H          H       0.06734   0.45526   0.44672   0.11578
H          H       0.53299   0.59908   0.49868   0.10731
H          H       0.27037   0.69688   0.51975   0.11121
H          H       0.30786   0.57953   0.53245   0.12926
H          H       0.42708   0.72840   0.48920   0.11554
H          H       0.73350   0.29884   0.47625   0.11394
H          H       0.70732   0.42500   0.46800   0.12860
H          H       0.58059   0.27996   0.51121   0.11390
H          H       0.21714   0.57943   0.61453   0.09434
H          H       0.45037   0.66572   0.49713   0.08385
H          H       0.33610   0.77571   0.47463   0.08361
H          H       0.79474   0.42121   0.39165   0.09786
H          H       0.56404   0.35232   0.52301   0.07795
H          H       0.66315   0.22308   0.52613   0.08470
H          H       0.42049   0.43743   0.50043   0.13505
H          H       0.56504   0.96038   0.42037   0.12191
H          H       0.03245   0.58775   0.48962   0.12320
H          H       0.60144   0.57576   0.49097   0.14048
H          H       0.43150   0.03802   0.55675   0.12083
H          H       0.97569   0.40632   0.51368   0.12555
H          H       0.47307   0.60291   0.48469   0.24304
H          H       0.39757   0.85306   0.44866   0.24371
H          H       0.13461   0.56453   0.61705   0.27094
H          H       0.54701   0.41843   0.53735   0.23760
H          H       0.59868   0.14846   0.55131   0.24374
H          H       0.87448   0.43956   0.40597   0.27121
C          C       0.29216   0.68497   0.01996  -0.17893
C          C       0.30840   0.61495   0.02433  -0.14620
C          C       0.37881   0.69602   0.99551  -0.16034
C          C       0.70037   0.31459   0.98501  -0.17336
C          C       0.68230   0.38227   0.97619  -0.13931
C          C       0.61316   0.29889  -0.00134  -0.16782
C          C       0.21931   0.60099   0.04693   0.01485
C          C       0.39758   0.62551   0.99530   0.00346
C          C       0.36257   0.76926   0.99515  -0.02231
C          C       0.77236   0.40031   0.96387   0.01775
C          C       0.59170   0.36615   0.99425  -0.00494
C          C       0.63149   0.22984   0.01076  -0.02306
C          C       0.45260   0.50703  -0.00014  -0.03150
C          C       0.48449   0.93931   0.97038  -0.02319
C          C       0.04727   0.53468   0.98667  -0.02821
C          C       0.53191   0.48169   0.99024  -0.04054
C          C       0.51041   0.05196   0.00612  -0.01897
C          C       0.94446   0.47709   0.05415  -0.02491
C          C       0.50347   0.55240   0.02564  -0.13100
C          C       0.44670   0.96077   0.00589  -0.10753
C          C       0.03156   0.48215   0.98783  -0.11668
C          C       0.48115   0.43592   0.96208  -0.12882
C          C       0.54824   0.03073   0.97130  -0.10826
C          C       0.96020   0.52997   0.05436  -0.11227
C          C       0.27388   0.63405   0.03034   0.07202
C          C       0.36102   0.64528   0.00445   0.08500
C          C       0.34451   0.71671   0.00525   0.06396
C          C       0.71769   0.36545   0.97522   0.07299
C          C       0.62975   0.34930   0.98937   0.08156
C          C       0.64834   0.28094   0.99570   0.06418
C          C       0.44206   0.44895   0.96917  -0.08488
C          C       0.53540   0.97509   0.95327  -0.07736
C          C       0.01132   0.55828   0.01955  -0.09408
C          C       0.54237   0.53968   0.02057  -0.10422
C          C       0.45951   0.01606   0.02275  -0.07663
C          C       0.98047   0.45386   0.02218  -0.09662
C          C       0.40755   0.51622   0.00606   0.42338
C          C       0.47508   0.88175   0.95496   0.44153
C          C       0.10123   0.56522   0.94434   0.44429
C          C       0.57736   0.47437   0.98960   0.41824
C          C       0.51949   0.10799   0.01554   0.43888
C          C       0.89040   0.44540   0.09306   0.44681
C          C       0.29908   0.68493   0.51717  -0.17533
C          C       0.31927   0.61822   0.52431  -0.13889
C          C       0.38690   0.70192   0.50000  -0.16234
C          C       0.70708   0.31379   0.47900  -0.17579
C          C       0.69312   0.38512   0.47380  -0.14556
C          C       0.62132   0.30372   0.49842  -0.16435
C          C       0.22864   0.59995   0.54340   0.01581
C          C       0.41044   0.63611   0.50458  -0.00561
C          C       0.36631   0.76959   0.48863  -0.02274
C          C       0.78146   0.39897   0.45892   0.01428
C          C       0.60465   0.37669   0.50305   0.00395
C          C       0.63524   0.23037   0.50475  -0.02084
C          C       0.47125   0.51912   0.49999  -0.04038
C          C       0.48542   0.94308   0.47179  -0.02203
C          C       0.05570   0.52547   0.46625  -0.02543
C          C       0.55071   0.49539   0.49662  -0.03226
C          C       0.51124   0.05522   0.50496  -0.02352
C          C       0.95269   0.46872   0.53643  -0.02916
C          C       0.52252   0.55880   0.49948  -0.12730
C          C       0.44774   0.96542   0.51112  -0.10715
C          C       0.03985   0.47396   0.47191  -0.10823
C          C       0.49943   0.45554   0.49650  -0.13175
C          C       0.54893   0.03316   0.46688  -0.10973
C          C       0.96852   0.52022   0.53078  -0.11679
C          C       0.28303   0.63459   0.52800   0.07146
C          C       0.37154   0.65179   0.50916   0.08163
C          C       0.35081   0.71898   0.50413   0.06379
C          C       0.72664   0.36535   0.47024   0.07250
C          C       0.64026   0.35511   0.49113   0.08343
C          C       0.65454   0.28234   0.49117   0.06387
C          C       0.46036   0.46735   0.49849  -0.10456
C          C       0.53615   0.97790   0.45021  -0.07727
C          C       0.01967   0.54821   0.49562  -0.09544
C          C       0.56158   0.54679   0.49691  -0.09013
C          C       0.46044   0.02043   0.52642  -0.07508
C          C       0.98871   0.44598   0.50767  -0.09582
C          C       0.42564   0.52648   0.50168   0.41945
C          C       0.47665   0.88647   0.45950   0.43886
C          C       0.10965   0.55600   0.42331   0.44744
C          C       0.59582   0.48641   0.49127   0.42076
C          C       0.52095   0.11145   0.51405   0.44070
C          C       0.89838   0.43723   0.57475   0.44267
N          N       0.18765   0.59876   0.98187  -0.12391
N          N       0.38268   0.58080   0.01097  -0.07818
N          N       0.41087   0.80094   0.98818  -0.10779
N          N       0.80413   0.40455   0.03457  -0.11915
N          N       0.60487   0.41127   0.98162  -0.08115
N          N       0.58351   0.19401   0.00345  -0.10914
N          N       0.41990   0.56637   0.00147  -0.24294
N          N       0.42413   0.84760   0.97364  -0.24213
N          N       0.13709   0.57002   0.01032  -0.23419
N          N       0.56631   0.42238   0.98471  -0.24603
N          N       0.57037   0.14899   0.02433  -0.23564
N          N       0.85478   0.43503   0.01063  -0.23262
N          N       0.19605   0.59555   0.47569  -0.12029
N          N       0.39777   0.58921   0.50938  -0.08420
N          N       0.41406   0.80374   0.48525  -0.10789
N          N       0.81245   0.40126   0.52675  -0.12143
N          N       0.62037   0.42234   0.49041  -0.07919
N          N       0.58681   0.19613   0.49783  -0.11169
N          N       0.43648   0.57818   0.50542  -0.24259
N          N       0.42579   0.84883   0.46640  -0.23492
N          N       0.14561   0.56584   0.50346  -0.23223
N          N       0.58368   0.43807   0.50244  -0.23625
N          N       0.57223   0.15075   0.51887  -0.23757
N          N       0.86317   0.43148   0.50352  -0.23514
O          O       0.36356   0.48263   0.01669  -0.42956
O          O       0.50936   0.86632   0.93145  -0.45236
O          O       0.11233   0.58494   0.85426  -0.50650
O          O       0.62102   0.51100   0.98899  -0.42931
O          O       0.48468   0.11613   0.01025  -0.45219
O          O       0.87912   0.42980   0.19441  -0.50675
O          O       0.38197   0.49058   0.50561  -0.43054
O          O       0.51162   0.87497   0.44936  -0.44893
O          O       0.12053   0.57131   0.32127  -0.50875
O          O       0.63985   0.51840   0.47333  -0.43282
O          O       0.48680   0.12126   0.51236  -0.45082
O          O       0.88595   0.41672   0.66348  -0.50541

