data_crystal

_audit_creation_method 'AiiDA-DDEC plugin'

_cell_length_a        30.31082
_cell_length_b        30.39050
_cell_length_c         9.23029

_cell_angle_alpha     43.59375
_cell_angle_beta     106.19578
_cell_angle_gamma     120.52873

_symmetry_space_group_name_Hall 'P 1'
_symmetry_space_group_name_H-M  'P 1'

loop_
_symmetry_equiv_pos_as_xyz
 'x,y,z'

loop_
_atom_site_label
_atom_site_type_symbol
_atom_site_fract_x
_atom_site_fract_y
_atom_site_fract_z
_atom_site_charge
H          H       0.31808   0.22081   0.02996   0.11164
H          H       0.35025   0.32340   0.99231   0.13196
H          H       0.78987   0.25020   0.05217   0.11430
H          H       0.69503   0.17913   0.09419   0.09508
H          H       0.85123   0.22793   0.01023   0.11753
H          H       0.28401   0.72371   0.03248   0.11087
H          H       0.22538   0.59397   0.98254   0.09435
H          H       0.41482   0.43495   0.12230   0.12541
H          H       0.47376   0.61220   0.08413   0.24246
H          H       0.73690   0.31102   0.11516   0.11041
H          H       0.79205   0.45600   0.10923   0.08265
H          H       0.59995   0.59402   0.01852   0.13514
H          H       0.54224   0.41463   0.08243   0.20337
H          H       0.53321   0.61527   0.03052   0.10722
H          H       0.81811   0.13158   0.02116   0.10899
H          H       0.72249   0.06160   0.05764   0.11793
H          H       0.78551   0.55192   0.16870   0.12136
H          H       0.84309   0.51012   0.20003   0.10428
H          H       0.82336   0.66160   0.09572   0.11466
H          H       0.31154   0.59184   0.06007   0.12722
H          H       0.45552   0.67629   0.07401   0.08469
H          H       0.58020   0.97488   0.15370   0.13047
H          H       0.41644   0.88503   0.06004   0.23622
H          H       0.70588   0.44268   0.07682   0.11705
H          H       0.56294   0.35651   0.06563   0.08213
H          H       0.45268   0.05632   0.99259   0.12180
H          H       0.61089   0.14320   0.10344   0.20725
H          H       0.42806   0.96094   0.01505   0.09741
H          H       0.91892   0.72974   0.05426   0.11510
H          H       0.97667   0.68787   0.08132   0.12153
H          H       0.45113   0.18843   0.32544   0.12897
H          H       0.48197   0.28915   0.28941   0.11312
H          H       0.36934   0.15485   0.19283   0.10645
H          H       0.43748   0.74467   0.07006   0.11941
H          H       0.35395   0.80997   0.03952   0.08018
H          H       0.03435   0.59287   0.15921   0.12150
H          H       0.14308   0.58022   0.98738   0.26983
H          H       0.58248   0.28777   0.07075   0.12042
H          H       0.66989   0.22236   0.12344   0.08136
H          H       0.97937   0.39898   0.20436   0.12449
H          H       0.87469   0.46942   0.14917   0.21088
H          H       0.07243   0.46596   0.19940   0.11147
H          H       0.31251   0.21440   0.52324   0.11096
H          H       0.34470   0.31694   0.48585   0.13204
H          H       0.78744   0.26679   0.43399   0.10837
H          H       0.69212   0.19221   0.49694   0.09636
H          H       0.84696   0.22186   0.50780   0.11795
H          H       0.27965   0.71856   0.53642   0.11048
H          H       0.21807   0.58900   0.48722   0.09404
H          H       0.40768   0.42666   0.62241   0.12610
H          H       0.46539   0.60045   0.59893   0.24055
H          H       0.73184   0.30217   0.62842   0.11349
H          H       0.78467   0.44285   0.63878   0.08137
H          H       0.59241   0.58361   0.53104   0.13359
H          H       0.53563   0.40511   0.59112   0.20403
H          H       0.52536   0.60343   0.54811   0.10526
H          H       0.81198   0.10010   0.65021   0.10948
H          H       0.71599   0.02659   0.70446   0.12330
H          H       0.77877   0.55328   0.62165   0.12238
H          H       0.83864   0.51651   0.63996   0.09722
H          H       0.81274   0.64941   0.61054   0.11669
H          H       0.30349   0.58368   0.56728   0.12778
H          H       0.44785   0.66551   0.58373   0.08248
H          H       0.57641   0.96856   0.65517   0.12862
H          H       0.41278   0.87911   0.56006   0.23756
H          H       0.69992   0.43403   0.58628   0.11625
H          H       0.55729   0.34864   0.56898   0.08340
H          H       0.44930   0.05135   0.48810   0.12296
H          H       0.60714   0.13827   0.59944   0.20842
H          H       0.42526   0.95745   0.50423   0.09757
H          H       0.90650   0.70864   0.61880   0.11292
H          H       0.96649   0.67148   0.63469   0.12462
H          H       0.44451   0.18018   0.82696   0.12723
H          H       0.47493   0.28006   0.79352   0.11517
H          H       0.36316   0.14747   0.69002   0.10529
H          H       0.43192   0.73630   0.57307   0.12019
H          H       0.35032   0.80457   0.53965   0.08057
H          H       0.02818   0.58813   0.66474   0.12287
H          H       0.13803   0.57594   0.49664   0.27038
H          H       0.57790   0.28194   0.56691   0.11823
H          H       0.66581   0.21691   0.62079   0.08530
H          H       0.97589   0.39841   0.69383   0.12479
H          H       0.86851   0.46097   0.66359   0.20891
H          H       0.06838   0.46454   0.69586   0.11103
C          C       0.80980   0.19498   0.03519  -0.04904
C          C       0.77507   0.20819   0.05687  -0.06793
C          C       0.79120   0.14154   0.03897  -0.09178
C          C       0.70310   0.11579   0.07923   0.14110
C          C       0.73806   0.10223   0.05962  -0.13132
C          C       0.72211   0.16867   0.08011  -0.14771
C          C       0.31072   0.70792   0.04230  -0.18269
C          C       0.23647   0.61863   0.04161   0.01351
C          C       0.46814   0.52561   0.07853  -0.02813
C          C       0.52087   0.57102   0.04781  -0.12321
C          C       0.29148   0.65376   0.04680   0.06816
C          C       0.45538   0.47011   0.09918  -0.15802
C          C       0.42311   0.53106   0.09191   0.43116
C          C       0.70969   0.32668   0.10232  -0.17869
C          C       0.78125   0.41396   0.11679  -0.00154
C          C       0.54682   0.50398   0.06192  -0.08021
C          C       0.49356   0.45842   0.09195   0.13013
C          C       0.72773   0.38068   0.09734   0.06315
C          C       0.55905   0.55985   0.04030  -0.09165
C          C       0.59339   0.50120   0.04420   0.43348
C          C       0.84876   0.64413   0.10604  -0.06462
C          C       0.82739   0.58214   0.14740  -0.08533
C          C       0.90245   0.68252   0.08226  -0.09169
C          C       0.91365   0.59817   0.13508   0.14284
C          C       0.93480   0.65955   0.09746  -0.13589
C          C       0.85950   0.55903   0.16263  -0.14751
C          C       0.32531   0.63304   0.05831  -0.14417
C          C       0.41471   0.64661   0.07418  -0.00404
C          C       0.50246   0.95877   0.09412  -0.01969
C          C       0.46668   0.98312   0.04442  -0.11152
C          C       0.37817   0.66546   0.06787   0.08817
C          C       0.55200   0.99244   0.11882  -0.13808
C          C       0.49232   0.90034   0.11579   0.44022
C          C       0.69321   0.40188   0.07795  -0.15561
C          C       0.60383   0.38729   0.06101   0.00301
C          C       0.52943   0.07086   0.05847  -0.07723
C          C       0.56650   0.04915   0.09640   0.14341
C          C       0.64066   0.36876   0.06768   0.08436
C          C       0.48006   0.03732   0.02984  -0.08629
C          C       0.53630   0.12707   0.04284   0.44058
C          C       0.38279   0.19892   0.17764  -0.06984
C          C       0.42918   0.21824   0.24976  -0.08316
C          C       0.35389   0.23594   0.08613  -0.09310
C          C       0.41856   0.31357   0.13202   0.14361
C          C       0.37142   0.29291   0.06451  -0.13301
C          C       0.44704   0.27532   0.22749  -0.14760
C          C       0.39664   0.71847   0.06569  -0.15488
C          C       0.38199   0.79486   0.05229  -0.02884
C          C       0.06003   0.53556   0.17371  -0.01249
C          C       0.04429   0.48006   0.18837  -0.08932
C          C       0.36313   0.74027   0.05216   0.06743
C          C       0.02297   0.55139   0.16511  -0.15165
C          C       0.11454   0.57514   0.18236   0.44875
C          C       0.62313   0.31486   0.07449  -0.14490
C          C       0.64061   0.23738   0.10000  -0.00515
C          C       0.95448   0.45787   0.18073  -0.06531
C          C       0.97053   0.51406   0.16621   0.13364
C          C       0.65756   0.29338   0.09218   0.07050
C          C       0.99239   0.44214   0.19280  -0.09005
C          C       0.90056   0.41187   0.18244   0.44131
C          C       0.80542   0.18747   0.54178  -0.05617
C          C       0.77156   0.21321   0.49999  -0.06524
C          C       0.78572   0.11976   0.61950  -0.09509
C          C       0.69828   0.10405   0.60860   0.14443
C          C       0.73239   0.07837   0.65093  -0.13493
C          C       0.71837   0.17170   0.53456  -0.15959
C          C       0.30570   0.70188   0.54665  -0.18499
C          C       0.23015   0.61273   0.54978   0.01825
C          C       0.46054   0.51528   0.58859  -0.02609
C          C       0.51319   0.56016   0.56090  -0.12349
C          C       0.28538   0.64717   0.55308   0.06807
C          C       0.44812   0.46105   0.60358  -0.15468
C          C       0.41521   0.51983   0.60453   0.43392
C          C       0.70460   0.31858   0.61101  -0.17384
C          C       0.77524   0.40461   0.63137  -0.00578
C          C       0.53963   0.49448   0.56985  -0.08362
C          C       0.48644   0.44951   0.59654   0.13253
C          C       0.72213   0.37222   0.60724   0.06293
C          C       0.55157   0.54960   0.55149  -0.09393
C          C       0.58638   0.49198   0.55185   0.43250
C          C       0.83910   0.63386   0.61666  -0.07112
C          C       0.81991   0.57960   0.62281  -0.08360
C          C       0.89180   0.66725   0.62078  -0.08811
C          C       0.90634   0.59247   0.63589   0.14275
C          C       0.92540   0.64684   0.62987  -0.14020
C          C       0.85322   0.55887   0.63301  -0.14331
C          C       0.31826   0.62529   0.56454  -0.14322
C          C       0.40694   0.63618   0.58379  -0.00148
C          C       0.49901   0.95345   0.59113  -0.01895
C          C       0.46334   0.97822   0.53943  -0.11191
C          C       0.37126   0.65672   0.57437   0.08795
C          C       0.54814   0.98594   0.62082  -0.13535
C          C       0.48919   0.89615   0.60789   0.43912
C          C       0.68753   0.39370   0.58563  -0.15746
C          C       0.59803   0.37919   0.56631   0.00269
C          C       0.52554   0.06448   0.55966  -0.07491
C          C       0.56245   0.04207   0.60107   0.14279
C          C       0.63521   0.36124   0.57189   0.08658
C          C       0.47646   0.03179   0.52735  -0.08650
C          C       0.53209   0.12032   0.54519   0.44057
C          C       0.37658   0.19142   0.67533  -0.06964
C          C       0.42258   0.21005   0.75034  -0.08369
C          C       0.34804   0.22903   0.58143  -0.09288
C          C       0.41223   0.30582   0.63098   0.14244
C          C       0.36559   0.28598   0.55991  -0.13426
C          C       0.44036   0.26692   0.72903  -0.14654
C          C       0.39089   0.71057   0.56961  -0.14858
C          C       0.37815   0.78946   0.55080  -0.02756
C          C       0.05481   0.53221   0.67622  -0.01364
C          C       0.03990   0.47803   0.68575  -0.09350
C          C       0.35839   0.73390   0.55424   0.06817
C          C       0.01733   0.54741   0.66785  -0.15064
C          C       0.10894   0.57086   0.68996   0.44982
C          C       0.61830   0.30835   0.57469  -0.14855
C          C       0.63643   0.23158   0.59887  -0.00179
C          C       0.94992   0.45528   0.67612  -0.06633
C          C       0.96518   0.51039   0.66563   0.13484
C          C       0.65289   0.28673   0.59429   0.07200
C          C       0.98829   0.44048   0.68661  -0.08976
C          C       0.89656   0.40999   0.67239   0.43725
N          N       0.61819   0.08697   0.10459  -0.12524
N          N       0.65095   0.07635   0.08483  -0.10235
N          N       0.20283   0.61701   0.10864  -0.12556
N          N       0.43648   0.58543   0.07686  -0.24128
N          N       0.81421   0.39445   0.14135  -0.10437
N          N       0.58149   0.44774   0.05875  -0.23455
N          N       0.93274   0.53028   0.15672  -0.11286
N          N       0.95046   0.58159   0.14255  -0.11941
N          N       0.39933   0.59778   0.07680  -0.08163
N          N       0.44320   0.87077   0.07942  -0.23516
N          N       0.61930   0.43730   0.05373  -0.08934
N          N       0.58352   0.15809   0.08094  -0.22818
N          N       0.47984   0.40056   0.11877  -0.13232
N          N       0.43301   0.37241   0.09907  -0.09146
N          N       0.42953   0.82187   0.07557  -0.09682
N          N       0.15215   0.58441   0.09582  -0.23528
N          N       0.59384   0.20832   0.07548  -0.10593
N          N       0.86322   0.42957   0.15470  -0.22059
N          N       0.61411   0.08065   0.60720  -0.12350
N          N       0.64588   0.06092   0.62861  -0.10052
N          N       0.19735   0.61096   0.62106  -0.12951
N          N       0.42815   0.57356   0.59190  -0.23857
N          N       0.80928   0.38856   0.64367  -0.10756
N          N       0.57483   0.43805   0.56910  -0.23658
N          N       0.92693   0.52604   0.65578  -0.11298
N          N       0.94385   0.57645   0.64497  -0.11657
N          N       0.39110   0.58655   0.58945  -0.08110
N          N       0.43991   0.86635   0.57317  -0.23707
N          N       0.61299   0.42826   0.56276  -0.09189
N          N       0.57957   0.15266   0.57848  -0.22806
N          N       0.47304   0.39224   0.62093  -0.12970
N          N       0.42640   0.36430   0.59957  -0.09124
N          N       0.42601   0.81723   0.56989  -0.09819
N          N       0.14660   0.57916   0.60705  -0.24018
N          N       0.58961   0.20238   0.57498  -0.11028
N          N       0.85775   0.42264   0.66319  -0.22239
O          O       0.37812   0.49160   0.10931  -0.42808
O          O       0.63783   0.54422   0.01782  -0.45077
O          O       0.52485   0.88113   0.15799  -0.43459
O          O       0.50086   0.14200   0.00323  -0.47158
O          O       0.12422   0.59646   0.26825  -0.49709
O          O       0.89190   0.36336   0.20171  -0.46949
O          O       0.37035   0.47998   0.62247  -0.42942
O          O       0.63072   0.53559   0.52369  -0.45014
O          O       0.52193   0.87770   0.64609  -0.43536
O          O       0.49602   0.13370   0.51039  -0.47198
O          O       0.11789   0.59178   0.77637  -0.49483
O          O       0.88945   0.36589   0.67386  -0.46757

