data_crystal

_audit_creation_method 'AiiDA-DDEC plugin'

_cell_length_a        41.40870
_cell_length_b        50.75030
_cell_length_c         8.39205

_cell_angle_alpha     95.89631
_cell_angle_beta     122.10367
_cell_angle_gamma     89.86405

_symmetry_space_group_name_Hall 'P 1'
_symmetry_space_group_name_H-M  'P 1'

loop_
_symmetry_equiv_pos_as_xyz
 'x,y,z'

loop_
_atom_site_label
_atom_site_type_symbol
_atom_site_fract_x
_atom_site_fract_y
_atom_site_fract_z
_atom_site_charge
H          H       0.71983   0.36516   0.36375   0.11658
H          H       0.75319   0.32709   0.32272   0.11311
H          H       0.68457   0.27436   0.41423   0.10600
H          H       0.65238   0.31247   0.46048   0.10850
H          H       0.64189   0.35946   0.46773   0.06658
H          H       0.70236   0.43711   0.55988   0.12195
H          H       0.59875   0.38799   0.31675   0.10783
H          H       0.66629   0.47702   0.52970   0.10923
H          H       0.56255   0.42753   0.27221   0.10605
H          H       0.55812   0.44731   0.48338   0.10494
H          H       0.22165   0.86971   0.30414   0.11382
H          H       0.25933   0.83216   0.30714   0.10885
H          H       0.16940   0.77794   0.21335   0.11034
H          H       0.13258   0.81559   0.21486   0.10454
H          H       0.12366   0.86264   0.23319   0.06908
H          H       0.16558   0.93711   0.15523   0.11259
H          H       0.11636   0.89578   0.40385   0.10417
H          H       0.12786   0.97570   0.14095   0.09972
H          H       0.08232   0.93484   0.41127   0.09316
H          H       0.03133   0.93857   0.16835   0.10790
H          H       0.30480   0.64142   0.18107   0.11103
H          H       0.27109   0.67882   0.22068   0.11163
H          H       0.34022   0.73230   0.13659   0.10836
H          H       0.37359   0.69481   0.09833   0.10549
H          H       0.38435   0.64799   0.08748   0.06905
H          H       0.32512   0.57175   0.98819   0.12269
H          H       0.43116   0.61888   0.27372   0.11032
H          H       0.35876   0.53177   0.98450   0.10750
H          H       0.46539   0.57882   0.28072   0.10982
H          H       0.46611   0.56130   0.02182   0.11231
H          H       0.80383   0.13979   0.26852   0.11486
H          H       0.76808   0.17788   0.28590   0.11399
H          H       0.83843   0.22945   0.19735   0.10599
H          H       0.87320   0.19132   0.17650   0.10837
H          H       0.88532   0.14434   0.19041   0.06933
H          H       0.83012   0.06823   0.13435   0.12518
H          H       0.93325   0.11858   0.41208   0.11003
H          H       0.86675   0.02939   0.13954   0.10600
H          H       0.97028   0.07951   0.43425   0.10230
H          H       0.96865   0.06873   0.17670   0.10927
H          H       0.29230   0.35467   0.00563   0.12120
H          H       0.25726   0.31613   0.01273   0.10779
H          H       0.36149   0.29318   0.48972   0.10928
H          H       0.39656   0.33105   0.47554   0.10131
H          H       0.39957   0.36892   0.33877   0.06194
H          H       0.34157   0.43838   0.23545   0.12575
H          H       0.41297   0.38925   0.11891   0.10396
H          H       0.38098   0.47817   0.28062   0.10233
H          H       0.44943   0.42913   0.13992   0.10353
H          H       0.49424   0.44778   0.42658   0.11134
H          H       0.81238   0.86196   0.24207   0.11700
H          H       0.77851   0.82397   0.26667   0.11423
H          H       0.84778   0.77018   0.16158   0.10640
H          H       0.88076   0.80813   0.13373   0.10674
H          H       0.89065   0.85598   0.14128   0.06748
H          H       0.83496   0.93064   0.15129   0.12408
H          H       0.93681   0.88887   0.33429   0.10938
H          H       0.86943   0.97209   0.17795   0.10563
H          H       0.97241   0.93071   0.38545   0.09616
H          H       0.97152   0.93743   0.15566   0.10889
H          H       0.72162   0.63590   0.22742   0.11883
H          H       0.75916   0.67410   0.22976   0.11523
H          H       0.68941   0.72780   0.32989   0.10303
H          H       0.65232   0.68974   0.32820   0.10841
H          H       0.63479   0.64338   0.26392   0.06350
H          H       0.67707   0.56467   0.18979   0.12094
H          H       0.61628   0.61568   0.36957   0.10870
H          H       0.63808   0.52577   0.16494   0.10735
H          H       0.57804   0.57729   0.34712   0.10644
H          H       0.52954   0.56009   0.06835   0.10398
H          H       0.21434   0.14410   0.25662   0.11730
H          H       0.25225   0.18204   0.25855   0.11507
H          H       0.18293   0.23622   0.35795   0.10353
H          H       0.14598   0.19843   0.36081   0.11123
H          H       0.12971   0.15205   0.31159   0.06684
H          H       0.16412   0.07425   0.16694   0.11329
H          H       0.11474   0.12183   0.42716   0.10588
H          H       0.12506   0.03498   0.13483   0.09945
H          H       0.07892   0.08257   0.41287   0.09543
H          H       0.02744   0.07026   0.17763   0.10888
H          H       0.63100   0.50103   0.32931   0.10684
H          H       0.12522   0.00819   0.31031   0.10891
H          H       0.39183   0.50475   0.14856   0.10489
H          H       0.90727   0.00369   0.32944   0.10254
H          H       0.71208   0.36516   0.87972   0.11709
H          H       0.74695   0.32663   0.85993   0.11509
H          H       0.66995   0.27482   0.90149   0.10750
H          H       0.63546   0.31325   0.91925   0.10773
H          H       0.62298   0.35860   0.89987   0.06403
H          H       0.65592   0.43354   0.76961   0.10778
H          H       0.60996   0.39111   0.03012   0.10260
H          H       0.61575   0.46985   0.74491   0.09845
H          H       0.57239   0.42733   0.01896   0.09200
H          H       0.52909   0.43642   0.92959   0.10135
H          H       0.19081   0.85857   0.66593   0.11369
H          H       0.22500   0.81975   0.65236   0.10780
H          H       0.16486   0.77329   0.82877   0.10762
H          H       0.13008   0.81186   0.83548   0.10201
H          H       0.11650   0.85688   0.80379   0.06534
H          H       0.16655   0.93342   0.84039   0.12551
H          H       0.06553   0.88135   0.58471   0.10965
H          H       0.12950   0.97131   0.84482   0.10540
H          H       0.02777   0.91939   0.57216   0.10288
H          H       0.02710   0.93166   0.81685   0.10896
H          H       0.27200   0.62886   0.65606   0.11349
H          H       0.24442   0.66840   0.71923   0.10985
H          H       0.32059   0.71807   0.65847   0.10759
H          H       0.34888   0.67864   0.60362   0.10543
H          H       0.35418   0.63091   0.58059   0.07228
H          H       0.30916   0.55848   0.65888   0.11624
H          H       0.35389   0.59699   0.37849   0.10435
H          H       0.34927   0.52104   0.69210   0.09875
H          H       0.39031   0.55874   0.39106   0.09616
H          H       0.43962   0.55676   0.56717   0.10439
H          H       0.78119   0.13546   0.75343   0.11675
H          H       0.74835   0.17521   0.77355   0.11381
H          H       0.82548   0.22406   0.71365   0.10951
H          H       0.85778   0.18436   0.69291   0.10958
H          H       0.86780   0.13865   0.70810   0.06527
H          H       0.82946   0.06479   0.82581   0.11255
H          H       0.87979   0.10536   0.57889   0.10400
H          H       0.86682   0.02609   0.84225   0.09890
H          H       0.91413   0.06646   0.57788   0.09212
H          H       0.96541   0.06257   0.82033   0.10905
H          H       0.27139   0.34293   0.50250   0.11842
H          H       0.23522   0.30507   0.51167   0.09884
H          H       0.33969   0.27890   0.96829   0.11203
H          H       0.37560   0.31636   0.95559   0.10350
H          H       0.37814   0.35606   0.82311   0.06035
H          H       0.32066   0.42661   0.76128   0.12458
H          H       0.38617   0.37759   0.60391   0.09661
H          H       0.35852   0.46651   0.78821   0.10333
H          H       0.42033   0.41757   0.60353   0.10379
H          H       0.46657   0.43566   0.87961   0.10530
H          H       0.78513   0.85667   0.74760   0.11656
H          H       0.74843   0.81881   0.75551   0.11531
H          H       0.81867   0.76453   0.66325   0.10373
H          H       0.85420   0.80226   0.64961   0.10824
H          H       0.86849   0.84911   0.68290   0.06787
H          H       0.83402   0.92609   0.83552   0.11183
H          H       0.88144   0.87978   0.55973   0.10649
H          H       0.87245   0.96586   0.86656   0.09992
H          H       0.91641   0.91950   0.57292   0.09446
H          H       0.96825   0.93076   0.81561   0.10858
H          H       0.68711   0.63190   0.71382   0.11852
H          H       0.72410   0.66940   0.70335   0.11363
H          H       0.65993   0.72472   0.83518   0.10418
H          H       0.62419   0.68732   0.84974   0.10511
H          H       0.60806   0.64141   0.81006   0.06117
H          H       0.64347   0.56231   0.67494   0.12048
H          H       0.58520   0.61232   0.87539   0.10552
H          H       0.60517   0.52300   0.65316   0.10076
H          H       0.55016   0.57351   0.87171   0.10154
H          H       0.50173   0.55728   0.60903   0.10319
H          H       0.18703   0.13566   0.74682   0.12032
H          H       0.22439   0.17324   0.74138   0.11462
H          H       0.15966   0.22828   0.87047   0.10670
H          H       0.12273   0.19074   0.87622   0.10593
H          H       0.10917   0.14316   0.84972   0.06624
H          H       0.16342   0.06743   0.84546   0.12384
H          H       0.06312   0.11105   0.66588   0.10874
H          H       0.12772   0.02679   0.82105   0.10529
H          H       0.02627   0.06990   0.61411   0.09601
H          H       0.02556   0.06312   0.83670   0.10831
H          H       0.60586   0.50090   0.85971   0.10396
H          H       0.08904   0.99620   0.66292   0.10145
H          H       0.35901   0.48859   0.57704   0.10795
H          H       0.87156   0.99337   0.68763   0.10895
C          C       0.71303   0.34524   0.37871  -0.10979
C          C       0.73171   0.32388   0.35653  -0.11590
C          C       0.72208   0.29771   0.36923   0.09080
C          C       0.69259   0.29413   0.40369  -0.12886
C          C       0.67418   0.31568   0.42802  -0.12462
C          C       0.68415   0.34165   0.41687   0.05131
C          C       0.74138   0.27524   0.34044  -0.05421
C          C       0.77969   0.27741   0.38552   0.11535
C          C       0.72346   0.24937   0.25938   0.11411
C          C       0.66485   0.36408   0.44386   0.06856
C          C       0.65353   0.40950   0.44189   0.20622
C          C       0.67175   0.43517   0.50021  -0.14672
C          C       0.61396   0.40742   0.36795  -0.16738
C          C       0.65117   0.45756   0.48066  -0.12408
C          C       0.59342   0.42991   0.34319  -0.11881
C          C       0.61115   0.45572   0.39539   0.06541
C          C       0.58889   0.47958   0.34811   0.01347
C          C       0.55302   0.48101   0.33362   0.03091
C          C       0.53916   0.46187   0.39965  -0.14323
C          C       0.21048   0.84948   0.28451  -0.10158
C          C       0.23160   0.82823   0.28609  -0.12521
C          C       0.21757   0.80150   0.25656   0.09326
C          C       0.18127   0.79783   0.23296  -0.12350
C          C       0.16035   0.81924   0.23352  -0.12910
C          C       0.17407   0.84552   0.25592   0.05434
C          C       0.23903   0.77899   0.24541  -0.06065
C          C       0.27209   0.78158   0.23358   0.10253
C          C       0.22887   0.75186   0.23993   0.11388
C          C       0.15133   0.86766   0.25095   0.06224
C          C       0.14174   0.91307   0.26798   0.20501
C          C       0.14632   0.93668   0.20561  -0.15271
C          C       0.11781   0.91292   0.33980  -0.17828
C          C       0.12557   0.95840   0.20146  -0.12783
C          C       0.09850   0.93518   0.34373  -0.12628
C          C       0.10083   0.95835   0.26922   0.06173
C          C       0.07979   0.98213   0.26440   0.03027
C          C       0.04328   0.98105   0.24310   0.03154
C          C       0.02175   0.95682   0.20416  -0.11937
C          C       0.31244   0.66149   0.17227  -0.11221
C          C       0.29349   0.68265   0.19470  -0.12496
C          C       0.30279   0.70919   0.18449   0.09154
C          C       0.33238   0.71266   0.14932  -0.12803
C          C       0.35138   0.69136   0.12757  -0.12780
C          C       0.34196   0.66535   0.13920   0.05687
C          C       0.28247   0.73173   0.20708  -0.05459
C          C       0.24944   0.72916   0.21956   0.11537
C          C       0.29318   0.75894   0.21779   0.10645
C          C       0.36226   0.64331   0.11719   0.06904
C          C       0.37528   0.59824   0.12389   0.20663
C          C       0.35572   0.57310   0.04710  -0.15118
C          C       0.41515   0.59989   0.20504  -0.18173
C          C       0.37498   0.55077   0.04704  -0.12014
C          C       0.43441   0.57721   0.20810  -0.12263
C          C       0.41488   0.55197   0.12820   0.06285
C          C       0.43534   0.52749   0.14892   0.02474
C          C       0.47082   0.52629   0.15918   0.02931
C          C       0.48479   0.54598   0.09709  -0.13086
C          C       0.81084   0.15953   0.25156  -0.11459
C          C       0.79088   0.18091   0.26095  -0.11587
C          C       0.80056   0.20684   0.24430   0.08727
C          C       0.83078   0.21002   0.21457  -0.12161
C          C       0.85056   0.18845   0.20362  -0.12725
C          C       0.84127   0.16291   0.22441   0.05237
C          C       0.78073   0.22945   0.26692  -0.05890
C          C       0.74239   0.22731   0.22130   0.11258
C          C       0.79869   0.25532   0.34828   0.11621
C          C       0.86300   0.14056   0.22028   0.07159
C          C       0.87853   0.09636   0.25939   0.20984
C          C       0.86071   0.07059   0.19442  -0.15011
C          C       0.91850   0.09913   0.34665  -0.18266
C          C       0.88153   0.04889   0.20039  -0.11619
C          C       0.93933   0.07706   0.35819  -0.12053
C          C       0.92129   0.05148   0.27894   0.06135
C          C       0.94165   0.02782   0.27536   0.02068
C          C       0.97281   0.02844   0.24806   0.03663
C          C       0.98585   0.05158   0.21037  -0.14149
C          C       0.30719   0.34119   0.11187  -0.09463
C          C       0.28757   0.31953   0.11720  -0.11539
C          C       0.30631   0.30165   0.25425   0.09295
C          C       0.34620   0.30639   0.38275  -0.12158
C          C       0.36589   0.32778   0.37433  -0.14350
C          C       0.34677   0.34583   0.24124   0.05786
C          C       0.28532   0.27936   0.26548  -0.05799
C          C       0.24610   0.27971   0.20625   0.11290
C          C       0.30230   0.25587   0.34635   0.11956
C          C       0.36824   0.36900   0.24711   0.06579
C          C       0.37508   0.41100   0.17952   0.20697
C          C       0.36568   0.43659   0.21780  -0.15625
C          C       0.40644   0.40875   0.15754  -0.18791
C          C       0.38773   0.45888   0.24042  -0.12635
C          C       0.42723   0.43132   0.17145  -0.11588
C          C       0.41887   0.45700   0.21594   0.05994
C          C       0.43916   0.48104   0.21817   0.03272
C          C       0.47787   0.48174   0.26792   0.03424
C          C       0.50319   0.46215   0.36803  -0.13040
C          C       0.81958   0.84170   0.22372  -0.11815
C          C       0.80070   0.82040   0.23669  -0.12029
C          C       0.81031   0.79399   0.21452   0.08773
C          C       0.84003   0.79015   0.18054  -0.12089
C          C       0.85863   0.81161   0.16500  -0.12626
C          C       0.84878   0.83772   0.18648   0.05431
C          C       0.79009   0.77168   0.22960  -0.05708
C          C       0.75132   0.77199   0.17676   0.11344
C          C       0.80763   0.74825   0.30796   0.11613
C          C       0.86870   0.86027   0.17479   0.06738
C          C       0.88219   0.90638   0.22230   0.20908
C          C       0.86476   0.93077   0.19358  -0.15035
C          C       0.92161   0.90687   0.29160  -0.17998
C          C       0.88466   0.95401   0.21266  -0.11754
C          C       0.94165   0.93050   0.31839  -0.11707
C          C       0.92347   0.95453   0.26876   0.06820
C          C       0.94259   0.97909   0.26978   0.02191
C          C       0.97389   0.97946   0.24258   0.04037
C          C       0.98835   0.95607   0.20019  -0.13766
C          C       0.71530   0.65615   0.25283  -0.10665
C          C       0.73625   0.67757   0.25459  -0.11472
C          C       0.72741   0.70403   0.28160   0.09220
C          C       0.69669   0.70780   0.30809  -0.12920
C          C       0.67559   0.68631   0.30525  -0.13294
C          C       0.68443   0.66008   0.27734   0.05777
C          C       0.74836   0.72654   0.27311  -0.05091
C          C       0.78743   0.72643   0.32967   0.11560
C          C       0.73131   0.75041   0.20130   0.11275
C          C       0.66144   0.63803   0.27288   0.06310
C          C       0.64867   0.59311   0.27320   0.20271
C          C       0.65509   0.56713   0.22300  -0.14688
C          C       0.62037   0.59620   0.31777  -0.17276
C          C       0.63321   0.54540   0.21050  -0.12670
C          C       0.59856   0.57436   0.30489  -0.12220
C          C       0.60412   0.54827   0.25000   0.06178
C          C       0.58361   0.52493   0.25565   0.02783
C          C       0.54541   0.52500   0.21486   0.03399
C          C       0.52037   0.54528   0.12308  -0.13055
C          C       0.20843   0.16441   0.28340  -0.10811
C          C       0.22955   0.18566   0.28476  -0.11358
C          C       0.22090   0.21217   0.31175   0.09171
C          C       0.19023   0.21616   0.33804  -0.13284
C          C       0.16917   0.19482   0.33742  -0.13191
C          C       0.17786   0.16855   0.31000   0.05354
C          C       0.24207   0.23452   0.30328  -0.05163
C          C       0.28133   0.23429   0.36519   0.12108
C          C       0.22537   0.25823   0.22773   0.11210
C          C       0.15490   0.14656   0.30655   0.06296
C          C       0.14106   0.10116   0.29004   0.20183
C          C       0.14464   0.07590   0.21638  -0.15110
C          C       0.11641   0.10302   0.35807  -0.17336
C          C       0.12308   0.05385   0.20204  -0.12872
C          C       0.09587   0.08067   0.34919  -0.12580
C          C       0.09818   0.05541   0.26910   0.06424
C          C       0.07803   0.03094   0.26316   0.03197
C          C       0.04162   0.03003   0.24366   0.03087
C          C       0.01879   0.05238   0.20947  -0.11572
C          C       0.60307   0.50173   0.31174  -0.18254
C          C       0.53050   0.50325   0.25826   0.00104
C          C       0.09625   0.00712   0.27986  -0.18740
C          C       0.02540   0.00520   0.24563   0.00688
C          C       0.41997   0.50439   0.16863  -0.18594
C          C       0.49301   0.50373   0.22794   0.00364
C          C       0.92875   0.00347   0.29250  -0.18907
C          C       0.99087   0.00435   0.24705   0.00129
C          C       0.70333   0.34526   0.88547  -0.11549
C          C       0.72282   0.32360   0.87485  -0.11461
C          C       0.71088   0.29737   0.87487   0.08506
C          C       0.67909   0.29435   0.89319  -0.12202
C          C       0.65952   0.31608   0.90262  -0.13150
C          C       0.67073   0.34189   0.89554   0.05492
C          C       0.72932   0.27429   0.84585  -0.05942
C          C       0.76777   0.27502   0.89226   0.11506
C          C       0.70962   0.24899   0.75653   0.11565
C          C       0.64832   0.36393   0.89622   0.06460
C          C       0.63467   0.40863   0.89079   0.20349
C          C       0.63693   0.43220   0.82133  -0.15233
C          C       0.61059   0.40795   0.96140  -0.16985
C          C       0.61430   0.45299   0.81119  -0.13054
C          C       0.58850   0.42901   0.95300  -0.13139
C          C       0.58846   0.45223   0.87320   0.06796
C          C       0.56352   0.47477   0.84386   0.02978
C          C       0.52660   0.47402   0.82146   0.03858
C          C       0.51166   0.45264   0.86594  -0.13859
C          C       0.18539   0.83983   0.70248  -0.11266
C          C       0.20468   0.81783   0.69495  -0.11722
C          C       0.19821   0.79295   0.74076   0.08946
C          C       0.17071   0.79169   0.79158  -0.12562
C          C       0.15103   0.81363   0.79589  -0.12775
C          C       0.15813   0.83822   0.75340   0.05320
C          C       0.21867   0.76956   0.73410  -0.04974
C          C       0.25298   0.77074   0.73261   0.11793
C          C       0.20655   0.74299   0.72818   0.10779
C          C       0.13705   0.86070   0.76231   0.07538
C          C       0.11947   0.90442   0.72486   0.20909
C          C       0.13632   0.93045   0.78748  -0.14972
C          C       0.07984   0.90098   0.64744  -0.18148
C          C       0.11510   0.95166   0.78651  -0.11740
C          C       0.05851   0.92261   0.64113  -0.12413
C          C       0.07560   0.94854   0.71533   0.06292
C          C       0.05494   0.97215   0.71937   0.01953
C          C       0.02366   0.97192   0.74648   0.03856
C          C       0.01017   0.94896   0.78339  -0.14151
C          C       0.28220   0.64855   0.65520  -0.10509
C          C       0.26668   0.67089   0.69038  -0.12968
C          C       0.27911   0.69691   0.68883   0.08747
C          C       0.30968   0.69877   0.65912  -0.12586
C          C       0.32575   0.67632   0.62788  -0.12955
C          C       0.31182   0.65067   0.62089   0.05581
C          C       0.26056   0.72049   0.71148  -0.06091
C          C       0.22672   0.71944   0.71831   0.10365
C          C       0.27321   0.74721   0.72260   0.11593
C          C       0.32824   0.62736   0.58294   0.06660
C          C       0.33173   0.58164   0.53616   0.20553
C          C       0.32801   0.55854   0.60567  -0.15330
C          C       0.35391   0.58077   0.45388  -0.17508
C          C       0.35037   0.53742   0.62126  -0.12908
C          C       0.37520   0.55900   0.46411  -0.13132
C          C       0.37632   0.53737   0.56034   0.06190
C          C       0.40242   0.51536   0.60706   0.02608
C          C       0.44048   0.51705   0.64483   0.03479
C          C       0.45622   0.53960   0.61544  -0.12956
C          C       0.79032   0.15492   0.74257  -0.10699
C          C       0.77197   0.17727   0.75351  -0.11801
C          C       0.78429   0.20295   0.74591   0.08888
C          C       0.81567   0.20486   0.72360  -0.12586
C          C       0.83400   0.18238   0.71270  -0.12949
C          C       0.82200   0.15699   0.72328   0.05231
C          C       0.76606   0.22656   0.76957  -0.05466
C          C       0.72727   0.22608   0.71743   0.11478
C          C       0.78543   0.25201   0.85379   0.11312
C          C       0.84274   0.13411   0.71595   0.06625
C          C       0.85366   0.08869   0.71392   0.20338
C          C       0.84896   0.06514   0.77671  -0.15170
C          C       0.87780   0.08840   0.64293  -0.17437
C          C       0.86972   0.04328   0.78267  -0.12579
C          C       0.89746   0.06614   0.64285  -0.12785
C          C       0.89514   0.04310   0.71874   0.06260
C          C       0.91663   0.01929   0.72762   0.02941
C          C       0.95322   0.02007   0.74868   0.03374
C          C       0.97500   0.04415   0.78683  -0.12134
C          C       0.28598   0.32886   0.60462  -0.10118
C          C       0.26589   0.30752   0.60952  -0.12881
C          C       0.28443   0.28915   0.74257   0.08748
C          C       0.32464   0.29253   0.86409  -0.11628
C          C       0.34478   0.31376   0.85716  -0.13297
C          C       0.32573   0.33273   0.73201   0.06020
C          C       0.26259   0.26818   0.75968  -0.05566
C          C       0.22418   0.27043   0.71130   0.11545
C          C       0.27796   0.24406   0.83364   0.11545
C          C       0.34680   0.35645   0.74311   0.07048
C          C       0.35136   0.39943   0.68345   0.21303
C          C       0.34277   0.42490   0.72862  -0.15521
C          C       0.38056   0.39720   0.64545  -0.18924
C          C       0.36380   0.44713   0.74131  -0.12271
C          C       0.40008   0.41969   0.64818  -0.12206
C          C       0.39254   0.44525   0.69883   0.05504
C          C       0.41122   0.46956   0.69373   0.03237
C          C       0.45006   0.47185   0.74712   0.03247
C          C       0.47575   0.45189   0.83512  -0.12503
C          C       0.79146   0.83633   0.72448  -0.10928
C          C       0.77108   0.81513   0.72891  -0.11453
C          C       0.78014   0.78862   0.70551   0.09182
C          C       0.81083   0.78457   0.67915  -0.13041
C          C       0.83110   0.80590   0.67366  -0.13184
C          C       0.82176   0.83216   0.69574   0.05529
C          C       0.75903   0.76640   0.71563  -0.05486
C          C       0.71991   0.76702   0.65766   0.11809
C          C       0.77555   0.74247   0.78831   0.11419
C          C       0.84373   0.85427   0.69267   0.06235
C          C       0.85629   0.89981   0.70519   0.19986
C          C       0.85281   0.92488   0.78191  -0.14895
C          C       0.88007   0.89839   0.63198  -0.17317
C          C       0.87395   0.94716   0.79569  -0.12982
C          C       0.90006   0.92098   0.63988  -0.12446
C          C       0.89812   0.94598   0.72447   0.06212
C          C       0.91831   0.97046   0.73128   0.03256
C          C       0.95465   0.97107   0.74996   0.03059
C          C       0.97716   0.94853   0.78383  -0.11213
C          C       0.68174   0.65236   0.74109  -0.11776
C          C       0.70235   0.67335   0.73599  -0.12046
C          C       0.69486   0.70001   0.76823   0.08444
C          C       0.66589   0.70457   0.80661  -0.11810
C          C       0.64565   0.68347   0.81430  -0.12762
C          C       0.65305   0.65707   0.78100   0.05671
C          C       0.71603   0.72199   0.75642  -0.05359
C          C       0.75480   0.72113   0.81039   0.11132
C          C       0.69915   0.74560   0.67896   0.11424
C          C       0.63110   0.63545   0.78807   0.06355
C          C       0.61629   0.59020   0.76940   0.19974
C          C       0.62229   0.56445   0.71373  -0.14343
C          C       0.58925   0.59292   0.82263  -0.17127
C          C       0.60105   0.54251   0.70416  -0.13176
C          C       0.56893   0.57089   0.81828  -0.12409
C          C       0.57402   0.54509   0.75732   0.07068
C          C       0.55513   0.52111   0.76515   0.02908
C          C       0.51679   0.51941   0.71968   0.03585
C          C       0.49195   0.54027   0.64420  -0.13007
C          C       0.18181   0.15606   0.77625  -0.12010
C          C       0.20265   0.17708   0.77412  -0.11901
C          C       0.19539   0.20369   0.80915   0.08874
C          C       0.16569   0.20812   0.84252  -0.12113
C          C       0.14496   0.18694   0.84604  -0.12583
C          C       0.15290   0.16060   0.81487   0.05278
C          C       0.21764   0.22546   0.80321  -0.05790
C          C       0.25633   0.22360   0.85733   0.11502
C          C       0.20236   0.24972   0.73241   0.11615
C          C       0.13159   0.13841   0.82039   0.06827
C          C       0.11699   0.09255   0.77395   0.20868
C          C       0.13366   0.06789   0.80325  -0.14811
C          C       0.07772   0.09281   0.70695  -0.17819
C          C       0.11310   0.04509   0.78530  -0.12047
C          C       0.05696   0.06958   0.68022  -0.11766
C          C       0.07430   0.04526   0.72856   0.07099
C          C       0.05445   0.02099   0.72571   0.02157
C          C       0.02305   0.02097   0.75199   0.04050
C          C       0.00863   0.04453   0.79270  -0.13754
C          C       0.57656   0.49892   0.82342  -0.18185
C          C       0.50272   0.49615   0.75295   0.00274
C          C       0.06782   0.99647   0.70151  -0.18880
C          C       0.00574   0.99621   0.74696   0.00071
C          C       0.38900   0.49117   0.62520  -0.18942
C          C       0.46434   0.49498   0.71379   0.00398
C          C       0.90034   0.99438   0.71539  -0.18673
C          C       0.97108   0.99577   0.74773   0.00607
S          S       0.67837   0.21169   0.10994   0.45391
S          S       0.19755   0.71178   0.23764   0.45867
S          S       0.32482   0.79912   0.22339   0.45717
S          S       0.84395   0.29289   0.50137   0.44606
S          S       0.34583   0.22222   0.49647   0.44531
S          S       0.85277   0.71582   0.46541   0.43987
S          S       0.68716   0.78404   0.06085   0.46068
S          S       0.18225   0.29253   0.09227   0.44679
S          S       0.66149   0.21317   0.58809   0.44209
S          S       0.17160   0.70441   0.71826   0.45380
S          S       0.30849   0.78606   0.73803   0.44505
S          S       0.83287   0.28837   0.00789   0.45127
S          S       0.31896   0.20868   0.96809   0.45720
S          S       0.81859   0.70821   0.92749   0.46133
S          S       0.65480   0.77831   0.51948   0.44353
S          S       0.16129   0.28519   0.60083   0.43643
N          N       0.68661   0.24242   0.20098  -0.35031
N          N       0.71870   0.20490   0.13340  -0.34487
N          N       0.67470   0.38819   0.44106  -0.28618
N          N       0.19898   0.74376   0.25223  -0.35114
N          N       0.23310   0.70555   0.21419  -0.33993
N          N       0.16299   0.89190   0.26368  -0.28110
N          N       0.32405   0.76722   0.21382  -0.34457
N          N       0.28799   0.80521   0.23578  -0.33467
N          N       0.35418   0.61929   0.12989  -0.28473
N          N       0.83568   0.26218   0.40904  -0.35722
N          N       0.80338   0.29977   0.47463  -0.34579
N          N       0.85595   0.11729   0.24914  -0.28745
N          N       0.33948   0.25055   0.41440  -0.35729
N          N       0.30385   0.21427   0.45175  -0.34574
N          N       0.35211   0.38932   0.16095  -0.26953
N          N       0.84530   0.74410   0.38138  -0.36173
N          N       0.81086   0.70691   0.41887  -0.35013
N          N       0.86053   0.88420   0.20448  -0.28148
N          N       0.69433   0.75551   0.13987  -0.34545
N          N       0.72822   0.79201   0.09416  -0.34354
N          N       0.67145   0.61377   0.27649  -0.28764
N          N       0.18843   0.26359   0.16505  -0.34695
N          N       0.22371   0.30026   0.12950  -0.34213
N          N       0.16340   0.12217   0.29381  -0.28475
N          N       0.67194   0.24352   0.68850  -0.35329
N          N       0.70195   0.20469   0.61992  -0.35008
N          N       0.65695   0.38807   0.88755  -0.28425
N          N       0.17459   0.73628   0.72749  -0.34420
N          N       0.20873   0.69659   0.71245  -0.33876
N          N       0.14233   0.88402   0.72735  -0.28663
N          N       0.30537   0.75413   0.72607  -0.34307
N          N       0.27121   0.79378   0.74355  -0.34709
N          N       0.31370   0.60362   0.55983  -0.28554
N          N       0.82276   0.25768   0.91535  -0.34854
N          N       0.79284   0.29671   0.98221  -0.34678
N          N       0.83295   0.11015   0.72220  -0.28815
N          N       0.31403   0.23710   0.88953  -0.34574
N          N       0.27760   0.20274   0.93773  -0.34408
N          N       0.32977   0.37747   0.67225  -0.26603
N          N       0.81244   0.73689   0.85089  -0.34720
N          N       0.77717   0.70075   0.89179  -0.34164
N          N       0.83485   0.87856   0.70548  -0.28468
N          N       0.66156   0.75018   0.60475  -0.36211
N          N       0.69695   0.78668   0.56699  -0.35184
N          N       0.63813   0.61091   0.76655  -0.28580
N          N       0.16583   0.25606   0.67063  -0.35847
N          N       0.20325   0.29177   0.63985  -0.34344
N          N       0.13942   0.11430   0.79242  -0.28226

