data_crystal

_audit_creation_method 'AiiDA-DDEC plugin'

_cell_length_a        28.31222
_cell_length_b         7.85822
_cell_length_c        24.75075

_cell_angle_alpha     90.02893
_cell_angle_beta     98.38314
_cell_angle_gamma     90.01899

_symmetry_space_group_name_Hall 'P 1'
_symmetry_space_group_name_H-M  'P 1'

loop_
_symmetry_equiv_pos_as_xyz
 'x,y,z'

loop_
_atom_site_label
_atom_site_type_symbol
_atom_site_fract_x
_atom_site_fract_y
_atom_site_fract_z
_atom_site_charge
H          H       0.90262   0.87422   0.25620   0.10147
H          H       0.10008   0.87883   0.24536   0.10237
H          H       0.40076   0.37381   0.25544   0.10173
H          H       0.59728   0.37949   0.23810   0.10262
H          H       0.09854   0.12101   0.73976   0.10275
H          H       0.90206   0.11438   0.75716   0.10262
H          H       0.59923   0.62375   0.74348   0.10210
H          H       0.40249   0.62446   0.75882   0.10237
H          H       0.55889   0.63485   0.21452   0.10513
H          H       0.43760   0.63192   0.28120   0.10655
H          H       0.06357   0.13712   0.21968   0.10636
H          H       0.93856   0.13619   0.28257   0.10509
H          H       0.43865   0.36838   0.78359   0.10501
H          H       0.56256   0.36609   0.71892   0.10551
H          H       0.93882   0.85957   0.78083   0.10523
H          H       0.06230   0.86249   0.71692   0.10632
H          H       0.03851   0.65810   0.32069   0.09858
H          H       0.96442   0.65296   0.18483   0.09872
H          H       0.53647   0.15010   0.31624   0.10007
H          H       0.46169   0.14496   0.18285   0.09925
H          H       0.96205   0.34258   0.68113   0.09796
H          H       0.03693   0.35154   0.81408   0.09863
H          H       0.46345   0.85035   0.68465   0.09784
H          H       0.53842   0.84764   0.81973   0.09862
H          H       0.86214   0.63613   0.29591   0.11632
H          H       0.14080   0.64170   0.20560   0.11852
H          H       0.36017   0.14074   0.29741   0.11698
H          H       0.63774   0.14550   0.19642   0.11870
H          H       0.13814   0.35838   0.69887   0.11649
H          H       0.86076   0.34804   0.79763   0.11767
H          H       0.63965   0.85873   0.70207   0.11792
H          H       0.36212   0.86083   0.79934   0.11793
H          H       0.51275   0.45155   0.36199   0.10690
H          H       0.48740   0.45340   0.13530   0.10579
H          H       0.01200   0.95974   0.36479   0.10585
H          H       0.99002   0.95303   0.13793   0.10482
H          H       0.49005   0.54605   0.63845   0.10593
H          H       0.51256   0.54435   0.86489   0.10508
H          H       0.98887   0.04005   0.63516   0.10506
H          H       0.01270   0.04713   0.86243   0.10524
H          H       0.56290   0.67258   0.41475   0.10942
H          H       0.43798   0.67416   0.08174   0.10851
H          H       0.06153   0.17904   0.41889   0.10988
H          H       0.93980   0.16842   0.08291   0.11129
H          H       0.43994   0.32802   0.58416   0.11038
H          H       0.56117   0.32149   0.91817   0.11010
H          H       0.93947   0.81927   0.58136   0.11066
H          H       0.06319   0.83105   0.91681   0.11017
H          H       0.99867   0.42242   0.36042   0.10465
H          H       0.00454   0.41772   0.14514   0.10519
H          H       0.49666   0.91922   0.35820   0.10488
H          H       0.50156   0.91204   0.14179   0.10419
H          H       0.00101   0.57826   0.64044   0.10413
H          H       0.99625   0.58339   0.85463   0.10558
H          H       0.50316   0.08305   0.64335   0.10507
H          H       0.49865   0.08136   0.86044   0.10447
H          H       0.61047   0.84449   0.26658   0.11115
H          H       0.38632   0.83982   0.22842   0.11138
H          H       0.11411   0.34662   0.27320   0.11097
H          H       0.88740   0.34162   0.22812   0.11067
H          H       0.38723   0.16124   0.72990   0.10935
H          H       0.61282   0.15482   0.77167   0.10889
H          H       0.88845   0.64929   0.72768   0.11084
H          H       0.11365   0.65619   0.77063   0.11076
H          H       0.31860   0.59414   0.13326   0.11700
H          H       0.67917   0.59749   0.36491   0.11646
H          H       0.81982   0.08954   0.13180   0.11747
H          H       0.18001   0.10126   0.37161   0.11681
H          H       0.67974   0.39990   0.86725   0.11684
H          H       0.32056   0.40868   0.63633   0.11768
H          H       0.18063   0.90595   0.86756   0.11642
H          H       0.82109   0.89770   0.63034   0.11643
H          H       0.12123   0.89173   0.98556   0.10851
H          H       0.87844   0.88123   0.51391   0.10809
H          H       0.62000   0.37882   0.98396   0.10767
H          H       0.37952   0.39095   0.51841   0.10809
H          H       0.87764   0.11088   0.01380   0.10976
H          H       0.12201   0.12076   0.48605   0.10822
H          H       0.37922   0.62042   0.01537   0.10798
H          H       0.62076   0.60618   0.48226   0.10803
H          H       0.22817   0.98074   0.12470   0.11967
H          H       0.77313   0.98362   0.37439   0.12001
H          H       0.72479   0.47286   0.12480   0.12041
H          H       0.27205   0.48721   0.38053   0.11989
H          H       0.77058   0.00621   0.87612   0.11985
H          H       0.22490   0.02313   0.62815   0.11965
H          H       0.27293   0.51482   0.87707   0.11978
H          H       0.72711   0.51653   0.62185   0.12017
H          H       0.17262   0.17725   0.16359   0.11132
H          H       0.83015   0.17999   0.33771   0.10938
H          H       0.66828   0.67141   0.16139   0.10919
H          H       0.32775   0.68392   0.34199   0.10992
H          H       0.82700   0.81006   0.83831   0.10984
H          H       0.16717   0.82734   0.66385   0.10881
H          H       0.32971   0.32000   0.83958   0.10977
H          H       0.67096   0.32152   0.66060   0.11032
H          H       0.06573   0.08743   0.02431   0.10609
H          H       0.93552   0.07598   0.47721   0.10619
H          H       0.56353   0.57596   0.02061   0.10558
H          H       0.43530   0.58598   0.47991   0.10638
H          H       0.93420   0.91701   0.97587   0.10669
H          H       0.06401   0.92743   0.52186   0.10633
H          H       0.43623   0.42679   0.97795   0.10585
H          H       0.56468   0.41203   0.52086   0.10585
H          H       0.35943   0.34621   0.18071   0.09740
H          H       0.63757   0.35169   0.31657   0.09735
H          H       0.86238   0.84443   0.17883   0.09800
H          H       0.13864   0.85530   0.32339   0.09663
H          H       0.63930   0.64751   0.81977   0.09724
H          H       0.36285   0.65691   0.68282   0.09762
H          H       0.13881   0.15225   0.82019   0.09845
H          H       0.86329   0.14343   0.67783   0.09802
H          H       0.32648   0.04446   0.03493   0.10431
H          H       0.67415   0.04025   0.45952   0.10466
H          H       0.82582   0.53599   0.03508   0.10549
H          H       0.17483   0.54492   0.46659   0.10511
H          H       0.67272   0.95028   0.96535   0.10439
H          H       0.32726   0.95819   0.53759   0.10548
H          H       0.17412   0.45860   0.96459   0.10461
H          H       0.82603   0.45313   0.53467   0.10573
H          H       0.28772   0.29615   0.98658   0.10067
H          H       0.71346   0.29013   0.50898   0.10116
H          H       0.78522   0.78505   0.98696   0.10140
H          H       0.21389   0.79522   0.51602   0.10187
H          H       0.71147   0.69851   0.01369   0.10012
H          H       0.28675   0.70701   0.49022   0.10176
H          H       0.21356   0.20786   0.01313   0.10059
H          H       0.78583   0.20351   0.48613   0.10121
H          H       0.05164   0.30515   0.08911   0.06885
H          H       0.95114   0.29815   0.41374   0.06924
H          H       0.54811   0.79635   0.08452   0.06965
H          H       0.44949   0.80683   0.41507   0.06940
H          H       0.94944   0.69683   0.91155   0.07002
H          H       0.04722   0.70668   0.58626   0.06937
H          H       0.45170   0.20570   0.91404   0.06921
H          H       0.55004   0.19501   0.58608   0.06949
H          H       0.38673   0.06849   0.18329   0.06083
H          H       0.61120   0.07232   0.31257   0.06126
H          H       0.88970   0.56851   0.18185   0.06064
H          H       0.11244   0.57617   0.31923   0.06094
H          H       0.61232   0.92590   0.81690   0.06161
H          H       0.39001   0.93294   0.68481   0.06097
H          H       0.11199   0.42883   0.81698   0.06080
H          H       0.88896   0.42257   0.68178   0.06147
H          H       0.31626   0.00984   0.36392   0.11096
H          H       0.69163   0.97664   0.14293   0.11294
H          H       0.81180   0.49763   0.35648   0.11161
H          H       0.18591   0.49408   0.13859   0.11119
H          H       0.68470   0.99215   0.63751   0.11253
H          H       0.31371   0.00353   0.86022   0.11289
H          H       0.16402   0.45744   0.58209   0.10230
H          H       0.81341   0.49073   0.86069   0.11110
H          H       0.30202   0.91608   0.42546   0.09546
H          H       0.71280   0.88718   0.08438   0.09041
H          H       0.79573   0.40822   0.41779   0.09350
H          H       0.20654   0.40230   0.07998   0.09133
H          H       0.71215   0.09985   0.58616   0.09162
H          H       0.29572   0.09559   0.92022   0.09294
H          H       0.19310   0.50768   0.64914   0.11264
H          H       0.79450   0.58652   0.91956   0.09216
H          H       0.34282   0.09262   0.42839   0.09795
H          H       0.66265   0.03035   0.07614   0.10212
H          H       0.83961   0.57487   0.42127   0.09965
H          H       0.16065   0.56225   0.07166   0.09999
H          H       0.66401   0.95247   0.56696   0.10147
H          H       0.34063   0.93209   0.92604   0.09997
H          H       0.21320   0.60514   0.59120   0.09207
H          H       0.83840   0.41965   0.92739   0.09869
C          C       0.53266   0.52410   0.28439   0.05187
C          C       0.46551   0.52314   0.21203   0.05399
C          C       0.03451   0.02938   0.28823   0.05528
C          C       0.96796   0.02700   0.21440   0.05241
C          C       0.46757   0.47572   0.71493   0.05273
C          C       0.53439   0.47448   0.78798   0.05348
C          C       0.96707   0.96917   0.71201   0.05373
C          C       0.03393   0.97276   0.78551   0.05518
C          C       0.97384   0.78463   0.28491   0.05923
C          C       0.02896   0.78439   0.21855   0.05901
C          C       0.47189   0.28021   0.28221   0.05677
C          C       0.52624   0.27956   0.21454   0.05825
C          C       0.02711   0.21432   0.71450   0.05791
C          C       0.97280   0.21457   0.78195   0.05852
C          C       0.52813   0.71921   0.71793   0.05739
C          C       0.47372   0.71851   0.78525   0.05959
C          C       0.92397   0.77712   0.27943  -0.15024
C          C       0.07879   0.77996   0.22290  -0.14922
C          C       0.42208   0.27600   0.27836  -0.14902
C          C       0.57593   0.27896   0.21662  -0.15129
C          C       0.07683   0.21945   0.71770  -0.15070
C          C       0.92307   0.21517   0.77895  -0.15262
C          C       0.57788   0.72273   0.72126  -0.14990
C          C       0.42391   0.72307   0.78124  -0.15066
C          C       0.92696   0.51293   0.33143   0.19558
C          C       0.07605   0.51397   0.17196   0.19417
C          C       0.42495   0.01353   0.33120   0.19464
C          C       0.57303   0.01217   0.16609   0.19470
C          C       0.07294   0.48542   0.66664   0.19453
C          C       0.92504   0.48158   0.82974   0.19243
C          C       0.57481   0.98685   0.66939   0.19618
C          C       0.42696   0.98821   0.83269   0.19535
C          C       0.56034   0.63899   0.25864  -0.11510
C          C       0.43707   0.63671   0.23721  -0.11418
C          C       0.06346   0.14249   0.26357  -0.11767
C          C       0.93878   0.14019   0.23869  -0.11262
C          C       0.43854   0.36317   0.73967  -0.11445
C          C       0.56276   0.36038   0.76286  -0.11415
C          C       0.93865   0.85467   0.73690  -0.11495
C          C       0.06267   0.85887   0.76089  -0.11792
C          C      -0.00025   0.65698   0.31637  -0.11421
C          C       0.00312   0.65437   0.18811  -0.11500
C          C       0.49779   0.15175   0.31322  -0.11548
C          C       0.50028   0.14831   0.18490  -0.11410
C          C       0.00070   0.34272   0.68400  -0.11612
C          C       0.99830   0.34689   0.81167  -0.11361
C          C       0.50211   0.84873   0.68752  -0.11360
C          C       0.49971   0.84713   0.81620  -0.11417
C          C       0.90093   0.64319   0.30176  -0.15945
C          C       0.10199   0.64657   0.20051  -0.15999
C          C       0.39897   0.14482   0.30196  -0.16060
C          C       0.59900   0.14721   0.19325  -0.15963
C          C       0.09939   0.35306   0.69464  -0.15936
C          C       0.89955   0.34673   0.80185  -0.15715
C          C       0.60088   0.85461   0.69790  -0.16080
C          C       0.40090   0.85603   0.80404  -0.16127
C          C       0.53406   0.53770   0.34103  -0.13929
C          C       0.46528   0.53828   0.15563  -0.13858
C          C       0.03431   0.04438   0.34461  -0.13915
C          C       0.96784   0.03883   0.15788  -0.13748
C          C       0.46761   0.46161   0.65853  -0.13748
C          C       0.53439   0.45878   0.84438  -0.13749
C          C       0.96694   0.95450   0.65554  -0.13736
C          C       0.03460   0.96119   0.84213  -0.13870
C          C       0.58959   0.77651   0.34492   0.20041
C          C       0.40898   0.77475   0.15067   0.20055
C          C       0.09093   0.28021   0.35042   0.20285
C          C       0.91079   0.27301   0.15122   0.20126
C          C       0.41078   0.22694   0.65276   0.19998
C          C       0.59011   0.22024   0.84929   0.20081
C          C       0.91084   0.71715   0.65013   0.20124
C          C       0.09104   0.72499   0.84802   0.19977
C          C       0.56211   0.66174   0.37079  -0.16457
C          C       0.43748   0.66189   0.12544  -0.16447
C          C       0.06215   0.16722   0.37520  -0.16753
C          C       0.93964   0.15953   0.12676  -0.16890
C          C       0.43954   0.33957   0.62790  -0.16791
C          C       0.56179   0.33394   0.87449  -0.16737
C          C       0.93920   0.83101   0.62512  -0.16791
C          C       0.06282   0.83977   0.87288  -0.16580
C          C       0.97720   0.52353   0.33924  -0.16300
C          C       0.02579   0.52133   0.16523  -0.16502
C          C       0.47520   0.02088   0.33733  -0.16283
C          C       0.52283   0.01668   0.16115  -0.16604
C          C       0.02275   0.47604   0.66052  -0.16345
C          C       0.97530   0.47821   0.83508  -0.16430
C          C       0.52458   0.98032   0.66365  -0.16508
C          C       0.47720   0.97963   0.83956  -0.16340
C          C       0.58890   0.76079   0.28806  -0.16995
C          C       0.40861   0.75770   0.20734  -0.17102
C          C       0.09169   0.26367   0.29383  -0.17093
C          C       0.91023   0.25909   0.20791  -0.17168
C          C       0.41001   0.24308   0.70937  -0.16751
C          C       0.59070   0.23781   0.79269  -0.16687
C          C       0.91052   0.73293   0.70682  -0.16967
C          C       0.09128   0.73927   0.79127  -0.17022
C          C       0.22434   0.89002   0.97249  -0.05993
C          C       0.77567   0.88452   0.52599  -0.06035
C          C       0.72265   0.38088   0.97245  -0.06016
C          C       0.27644   0.39081   0.53178  -0.06060
C          C       0.77446   0.10323   0.02755  -0.06348
C          C       0.22440   0.11500   0.47610  -0.06134
C          C       0.27604   0.61270   0.02810  -0.06074
C          C       0.72344   0.60994   0.46949  -0.06117
C          C       0.25973   0.80138   0.94922   0.15213
C          C       0.74041   0.79521   0.54925   0.15282
C          C       0.75775   0.29201   0.94883   0.14977
C          C       0.24118   0.30267   0.55545   0.15430
C          C       0.73926   0.19157   0.05124   0.15441
C          C       0.25996   0.20232   0.45282   0.15163
C          C       0.24059   0.70091   0.05132   0.15237
C          C       0.75866   0.69935   0.44619   0.15281
C          C       0.28575   0.66597   0.97617  -0.06758
C          C       0.71417   0.66055   0.52188  -0.06703
C          C       0.78379   0.15605   0.97545  -0.06465
C          C       0.21469   0.16851   0.52811  -0.06786
C          C       0.71307   0.32722   0.02449  -0.06514
C          C       0.28593   0.33824   0.47968  -0.06797
C          C       0.21472   0.83705   0.02454  -0.06836
C          C       0.78505   0.83351   0.47363  -0.06939
C          C       0.31998   0.47395   0.11188  -0.12032
C          C       0.67820   0.47587   0.38552  -0.11866
C          C       0.82070   0.96863   0.11073  -0.12124
C          C       0.17908   0.97987   0.39236  -0.12056
C          C       0.67871   0.52019   0.88864  -0.12036
C          C       0.32198   0.52853   0.61483  -0.12155
C          C       0.17953   0.02659   0.88872  -0.11955
C          C       0.82167   0.01912   0.60955  -0.12131
C          C       0.13204   0.95239   0.02493  -0.13364
C          C       0.86831   0.94517   0.47496  -0.13157
C          C       0.63016   0.44112   0.02319  -0.13194
C          C       0.36874   0.45280   0.47924  -0.13428
C          C       0.86699   0.04612   0.97506  -0.13360
C          C       0.13130   0.05819   0.52539  -0.13119
C          C       0.36897   0.55625   0.97646  -0.13273
C          C       0.63132   0.54544   0.52165  -0.13059
C          C       0.17866   0.92672   0.05178   0.09888
C          C       0.82173   0.92333   0.44737   0.09841
C          C       0.67652   0.41664   0.05107   0.09928
C          C       0.32197   0.42867   0.45259   0.09935
C          C       0.82009   0.06686   0.94841   0.09860
C          C       0.17751   0.08052   0.55397   0.09832
C          C       0.32221   0.57692   0.94941   0.09944
C          C       0.67792   0.57051   0.54873   0.09814
C          C       0.19236   0.00263   0.10332  -0.12916
C          C       0.80889   0.00267   0.39629  -0.12973
C          C       0.68928   0.49415   0.10253  -0.13082
C          C       0.30811   0.50688   0.40152  -0.13071
C          C       0.80655   0.98731   0.89745  -0.12891
C          C       0.18945   0.00318   0.60552  -0.12840
C          C       0.30893   0.49705   0.89846  -0.13003
C          C       0.69133   0.49493   0.60035  -0.13008
C          C       0.16162   0.11227   0.12499  -0.10672
C          C       0.84043   0.11217   0.37590  -0.10714
C          C       0.65805   0.60507   0.12287  -0.10583
C          C       0.33894   0.61670   0.38008  -0.10663
C          C       0.83775   0.87796   0.87642  -0.10864
C          C       0.15749   0.89421   0.62536  -0.10724
C          C       0.34037   0.38818   0.87765  -0.10712
C          C       0.66029   0.38629   0.62192  -0.10456
C          C       0.11600   0.14826   0.09609   0.04691
C          C       0.88598   0.14464   0.40558   0.04759
C          C       0.61288   0.64061   0.09276   0.04550
C          C       0.38485   0.65060   0.40860   0.04589
C          C       0.88371   0.84657   0.90518   0.04767
C          C       0.11245   0.86042   0.59467   0.04633
C          C       0.38624   0.35716   0.90673   0.04669
C          C       0.61472   0.35072   0.59279   0.04485
C          C       0.10106   0.06215   0.04674  -0.12356
C          C       0.90013   0.05452   0.45435  -0.12552
C          C       0.59868   0.55191   0.04372  -0.12263
C          C       0.39982   0.56265   0.45760  -0.12410
C          C       0.89849   0.93723   0.95372  -0.12586
C          C       0.09904   0.94953   0.54552  -0.12459
C          C       0.40069   0.44760   0.95540  -0.12353
C          C       0.60004   0.43657   0.54335  -0.12563
C          C       0.34261   0.33381   0.13848  -0.12305
C          C       0.65522   0.33711   0.35840  -0.12316
C          C       0.84429   0.83012   0.13717  -0.12246
C          C       0.15611   0.84098   0.36530  -0.12231
C          C       0.65625   0.66048   0.86193  -0.12447
C          C       0.34533   0.66831   0.64085  -0.12293
C          C       0.15645   0.16576   0.86209  -0.12404
C          C       0.84501   0.15793   0.63627  -0.12269
C          C       0.34564   0.17777   0.11120   0.04664
C          C       0.65296   0.17930   0.38479   0.04657
C          C       0.84674   0.67307   0.11034   0.04620
C          C       0.15381   0.68317   0.39168   0.04458
C          C       0.65341   0.81688   0.88908   0.04653
C          C       0.34801   0.82383   0.61331   0.04523
C          C       0.15389   0.32259   0.88899   0.04659
C          C       0.84715   0.31553   0.60973   0.04603
C          C       0.32468   0.16516   0.05614  -0.10861
C          C       0.67510   0.16303   0.43932  -0.11079
C          C       0.82432   0.65749   0.05593  -0.10974
C          C       0.17576   0.66753   0.44630  -0.10918
C          C       0.67448   0.82955   0.94412  -0.10885
C          C       0.32589   0.83722   0.55873  -0.10862
C          C       0.17559   0.33713   0.94373  -0.10939
C          C       0.82472   0.33127   0.55533  -0.10886
C          C       0.30282   0.30618   0.02939  -0.13481
C          C       0.69729   0.30273   0.46661  -0.13282
C          C       0.80148   0.79696   0.02931  -0.13428
C          C       0.19788   0.80751   0.47358  -0.13351
C          C       0.69630   0.68843   0.97091  -0.13296
C          C       0.30315   0.69679   0.53258  -0.13664
C          C       0.19778   0.19682   0.97058  -0.13402
C          C       0.80214   0.19155   0.52846  -0.13446
C          C       0.29995   0.46300   0.05665   0.09283
C          C       0.69926   0.46154   0.44030   0.09046
C          C       0.79911   0.95480   0.05611   0.09296
C          C       0.20008   0.96610   0.44719   0.09376
C          C       0.69888   0.53108   0.94385   0.09193
C          C       0.30083   0.54011   0.56003   0.09228
C          C       0.20028   0.03919   0.94369   0.09245
C          C       0.80004   0.03313   0.55497   0.09257
C          C       0.08660   0.28350   0.11404   0.07359
C          C       0.91606   0.27980   0.38868   0.07543
C          C       0.58326   0.77752   0.10939   0.07351
C          C       0.41442   0.78521   0.39033   0.07639
C          C       0.91388   0.71314   0.88740   0.07490
C          C       0.08257   0.72347   0.61087   0.07391
C          C       0.41633   0.22255   0.88952   0.07495
C          C       0.58517   0.21598   0.61078   0.07411
C          C       0.37283   0.03996   0.14033   0.07867
C          C       0.62554   0.04252   0.35530   0.07812
C          C       0.87467   0.53712   0.13945   0.07938
C          C       0.12666   0.54609   0.36198   0.08076
C          C       0.62623   0.95467   0.85984   0.07784
C          C       0.37544   0.96149   0.64206   0.07969
C          C       0.12661   0.45949   0.85957   0.07822
C          C       0.87471   0.45219   0.63902   0.08030
C          C       0.31031   0.03570   0.40584  -0.18216
C          C       0.69715   0.00060   0.10074  -0.18295
C          C       0.80624   0.52540   0.39842  -0.18194
C          C       0.19349   0.51921   0.09720  -0.18024
C          C       0.69562   0.98045   0.59701  -0.18298
C          C       0.30736   0.97803   0.90203  -0.18326
C          C       0.19845   0.48848   0.60664  -0.18185
C          C       0.80592   0.46724   0.90220  -0.17940
C          C       0.49908   0.40164   0.24834   0.01453
C          C       0.00135   0.90710   0.25159   0.01275
C          C       0.50103   0.59674   0.75159   0.01455
C          C       0.00022   0.09225   0.74850   0.01547
N          N       0.61665   0.89895   0.37738  -0.30220
N          N       0.38216   0.89720   0.11796  -0.30122
N          N       0.11778   0.40173   0.38359  -0.30277
N          N       0.88335   0.39249   0.11787  -0.30082
N          N       0.38403   0.10501   0.61979  -0.30075
N          N       0.61688   0.09769   0.88204  -0.30145
N          N       0.88386   0.59574   0.61709  -0.30225
N          N       0.11802   0.60413   0.88119  -0.30013
N          N       0.90021   0.37786   0.34811  -0.29688
N          N       0.10279   0.37925   0.15510  -0.29471
N          N       0.39827   0.87994   0.34901  -0.29559
N          N       0.59968   0.87712   0.14933  -0.29438
N          N       0.09921   0.62199   0.65020  -0.29603
N          N       0.89776   0.61399   0.84717  -0.29578
N          N       0.60150   0.12039   0.65176  -0.29566
N          N       0.40014   0.12284   0.84949  -0.29721
O          O       0.27055   0.15211   0.40234  -0.19114
O          O       0.72921   0.14412   0.10219  -0.19461
O          O       0.76876   0.65142   0.39521  -0.19265
O          O       0.22946   0.65080   0.10159  -0.19297
O          O       0.72948   0.84187   0.59996  -0.19358
O          O       0.27054   0.84962   0.89863  -0.19244
O          O       0.23157   0.34845   0.60680  -0.19511
O          O       0.76836   0.34144   0.89830  -0.19229

