data_crystal

_audit_creation_method 'AiiDA-DDEC plugin'

_cell_length_a        43.07960
_cell_length_b        43.84552
_cell_length_c         4.33291

_cell_angle_alpha     98.10986
_cell_angle_beta     103.02495
_cell_angle_gamma     120.51196

_symmetry_space_group_name_Hall 'P 1'
_symmetry_space_group_name_H-M  'P 1'

loop_
_symmetry_equiv_pos_as_xyz
 'x,y,z'

loop_
_atom_site_label
_atom_site_type_symbol
_atom_site_fract_x
_atom_site_fract_y
_atom_site_fract_z
_atom_site_charge
H          H       0.90461   0.42463   0.89125   0.04838
H          H       0.94545   0.40844   0.25522   0.11293
H          H       0.64071   0.17289   0.62420   0.12599
H          H       0.66153   0.22356   0.37837   0.11240
H          H       0.58774   0.25013   0.69214   0.11016
H          H       0.56989   0.20182   0.96132   0.11329
H          H       0.68113   0.26581   0.21870   0.10525
H          H       0.66827   0.34906   0.92842   0.10831
H          H       0.60444   0.28813   0.50182   0.09478
H          H       0.73662   0.30151   0.33453   0.10580
H          H       0.80248   0.33904   0.32766   0.10512
H          H       0.76591   0.38018   0.58616   0.11736
H          H       0.70150   0.34795   0.63574   0.10148
H          H       0.64543   0.37992   0.96534   0.11056
H          H       0.61907   0.41683   0.04028   0.11398
H          H       0.56240   0.35519   0.64649   0.10998
H          H       0.58846   0.31851   0.57482   0.10625
H          H       0.41687   0.54330   0.67110   0.03059
H          H       0.56644   0.41579   0.62464   0.02687
H          H       0.42513   0.50370   0.40859   0.20590
H          H       0.53889   0.44074   0.39450   0.25643
H          H       0.48520   0.44045   0.50382   0.11973
H          H       0.49216   0.51838   0.49338   0.14763
H          H       0.32833   0.57918   0.90149   0.10232
H          H       0.35918   0.54581   0.89612   0.11664
H          H       0.41994   0.59804   0.94321   0.11252
H          H       0.38992   0.63271   0.94884   0.10438
H          H       0.38528   0.71472   0.08951   0.10893
H          H       0.41661   0.77714   0.02765   0.11459
H          H       0.58575   0.11671   0.34399   0.18691
H          H       0.37346   0.80839   0.71782   0.11512
H          H       0.57126   0.01314   0.18376   0.15057
H          H       0.33409   0.74391   0.71919   0.11070
H          H       0.03546   0.51584   0.50187   0.30837
H          H       0.30283   0.59578   0.69312   0.11027
H          H       0.43460   0.44944   0.22449   0.29108
H          H       0.36827   0.66842   0.20011   0.10705
H          H       0.56118   0.50079   0.66110   0.34369
H          H       0.30860   0.69627   0.73542   0.10576
H          H       0.51663   0.03806   0.11263   0.33809
H          H       0.18177   0.54152   0.59698   0.12480
H          H       0.42952   0.85180   0.69055   0.02901
H          H       0.23915   0.57436   0.43777   0.11294
H          H       0.46956   0.90024   0.62528   0.26011
H          H       0.27993   0.67655   0.15031   0.10932
H          H       0.48341   0.97785   0.06332   0.14377
H          H       0.22671   0.64277   0.35706   0.11143
H          H       0.52993   0.95150   0.14588   0.31190
H          H       0.17383   0.58112   0.36462   0.08575
H          H       0.83964   0.39316   0.78492   0.02810
H          H       0.12319   0.53687   0.64595   0.19898
H          H       0.90106   0.42308   0.19389   0.15974
H          H       0.01482   0.44325   0.33001   0.13438
H          H       0.97245   0.48089   0.18876   0.13006
H          H       0.58261   0.15955   0.17363   0.07989
H          H       0.90137   0.38759   0.61745   0.07653
C          C       0.60049   0.18089   0.78372   0.05915
C          C       0.45602   0.46101   0.70411   0.25764
C          C       0.62773   0.18865   0.62744  -0.18179
C          C       0.48741   0.45825   0.72149  -0.21018
C          C       0.64028   0.21823   0.49603  -0.08367
C          C       0.51906   0.47468   0.01413  -0.17335
C          C       0.62617   0.24115   0.50836   0.05027
C          C       0.52034   0.49599   0.29889   0.28212
C          C       0.59948   0.23350   0.67017  -0.16743
C          C       0.48920   0.49941   0.28015  -0.19983
C          C       0.58811   0.20521   0.81382  -0.09964
C          C       0.34838   0.58408   0.13547  -0.11465
C          C       0.63902   0.27129   0.36045   0.07825
C          C       0.36665   0.56540   0.12786  -0.08132
C          C       0.66771   0.28101   0.22004  -0.18174
C          C       0.39383   0.57096   0.41673   0.01576
C          C       0.67932   0.30970   0.07467   0.09101
C          C       0.40157   0.59552   0.70937  -0.09590
C          C       0.65986   0.32777   0.05268  -0.15893
C          C       0.38365   0.61452   0.71290  -0.11217
C          C       0.63312   0.32087   0.21096   0.00390
C          C       0.35673   0.60932   0.42471   0.01547
C          C       0.62392   0.29312   0.36654  -0.15948
C          C       0.37924   0.73367   0.20523  -0.12909
C          C       0.71416   0.32344  -0.00707   0.02244
C          C       0.39529   0.76881   0.14772  -0.09107
C          C       0.74331   0.32055   0.18796  -0.09218
C          C       0.39467   0.79661   0.35205   0.04597
C          C       0.77955   0.33908   0.16118  -0.16415
C          C       0.37293   0.78665   0.55657  -0.14097
C          C       0.78868   0.36118   0.95409   0.06697
C          C       0.35461   0.75126   0.59195  -0.09600
C          C       0.75884   0.36059   0.72844  -0.10393
C          C       0.35816   0.72384   0.41558   0.02575
C          C       0.72271   0.34377   0.77193  -0.13357
C          C       0.31272   0.62083   0.61822  -0.19528
C          C       0.61704   0.34348   0.24421   0.03879
C          C       0.33844   0.63030   0.45179   0.06824
C          C       0.62648   0.37322   0.10874  -0.10432
C          C       0.34927   0.66170   0.34371  -0.16274
C          C       0.61308   0.39569   0.16518  -0.09293
C          C       0.34215   0.68803   0.47699   0.06193
C          C       0.58969   0.38993   0.35548   0.00662
C          C       0.31782   0.67849   0.66261  -0.17915
C          C       0.58108   0.36125   0.50049  -0.09065
C          C       0.30036   0.64351   0.71726   0.08837
C          C       0.59401   0.33844   0.43691  -0.12965
C          C       0.20276   0.57121   0.71710  -0.16830
C          C       0.41106   0.54964   0.42543   0.06008
C          C       0.23564   0.58954   0.63294  -0.10368
C          C       0.57222   0.41068   0.38425   0.07597
C          C       0.26540   0.62721   0.80378   0.06635
C          C       0.54637   0.46327   0.00571   0.46702
C          C       0.25994   0.64683   0.04359  -0.16841
C          C       0.42965   0.49486   0.93703   0.30602
C          C       0.22901   0.62819   0.14756  -0.09842
C          C       0.45701   0.48246   0.98688  -0.11741
C          C       0.19893   0.59043   0.97637   0.04335
C          C       0.16784   0.57323   0.09500  -0.02832
C          C       0.07334   0.49818   0.78882   0.45015
C          C       0.00453   0.45236   0.50552  -0.06125
C          C       0.03346   0.48338   0.79092  -0.18167
C          C       0.02084   0.49283   0.03894   0.31064
C          C       0.58796   0.15274   0.94558  -0.04015
C          C       0.58058   0.07123   0.09315   0.46519
C          C       0.54954   0.00513   0.94798  -0.21152
C          C       0.55215   0.03446   0.82675  -0.14461
C          C       0.52817   0.02386   0.49591   0.29417
C          C       0.42033   0.83677   0.41808   0.06092
C          C       0.46827   0.91848   0.21427   0.44341
C          C       0.50234   0.95710   0.42572  -0.16064
C          C       0.52593   0.96759   0.75685   0.27083
C          C       0.50556   0.98621   0.29868  -0.22930
C          C       0.82977   0.38647   0.00549   0.02358
C          C       0.91183   0.41729   0.66746  -0.05547
C          C       0.95431   0.44000   0.72953   0.08175
C          C       0.96643   0.43117   0.48196  -0.17426
C          C       0.98148   0.47024   0.01148  -0.25317
N          N       0.41753   0.53843   0.16919  -0.14772
N          N       0.43498   0.51873   0.22380  -0.21886
N          N       0.56363   0.42175   0.13612  -0.13935
N          N       0.54403   0.43853   0.17267  -0.22008
N          N       0.13227   0.54605   0.91428   0.08607
N          N       0.10481   0.52944   0.04372  -0.33649
N          N       0.58566   0.12156   0.86024  -0.06836
N          N       0.58069   0.10344   0.09271  -0.19753
N          N       0.43289   0.85436   0.21029  -0.11599
N          N       0.46130   0.89181   0.36893  -0.22048
N          N       0.85217   0.39958   0.31236  -0.14816
N          N       0.89157   0.42376   0.40204  -0.17117
N          N       0.40505   0.48429   0.64695  -0.33317
O          O       0.59973   0.07189   0.35510  -0.43862
O          O       0.04447   0.52248   0.31223  -0.39150
O          O       0.42554   0.44378   0.41882  -0.35965
O          O       0.54981   0.51500   0.59154  -0.43512
O          O       0.52500   0.04824   0.35616  -0.40566
O          O       0.44893   0.91312   0.92642  -0.47430
O          O       0.52657   0.94266   0.90659  -0.39678
O          O       0.56701   0.47231   0.82582  -0.46771
O          O       0.07719   0.48356   0.54493  -0.48802

