data_crystal

_audit_creation_method 'AiiDA-DDEC plugin'

_cell_length_a        48.51942
_cell_length_b        43.92056
_cell_length_c         8.62471

_cell_angle_alpha     116.47881
_cell_angle_beta     93.70499
_cell_angle_gamma     89.87698

_symmetry_space_group_name_Hall 'P 1'
_symmetry_space_group_name_H-M  'P 1'

loop_
_symmetry_equiv_pos_as_xyz
 'x,y,z'

loop_
_atom_site_label
_atom_site_type_symbol
_atom_site_fract_x
_atom_site_fract_y
_atom_site_fract_z
_atom_site_charge
H          H       0.07225   0.58639   0.45119   0.11258
H          H       0.92691   0.41882   0.04888   0.10916
H          H       0.93944   0.58146   0.31876   0.10949
H          H       0.06330   0.41639   0.08093   0.10819
H          H       0.57106   0.08095   0.40403   0.10749
H          H       0.43911   0.91690   0.18032   0.10843
H          H       0.43928   0.08060   0.34215   0.10853
H          H       0.56403   0.91750   0.17645   0.11195
H          H       0.10674   0.62510   0.42652   0.11794
H          H       0.89016   0.37983   0.05601   0.11727
H          H       0.90123   0.61915   0.32779   0.11948
H          H       0.09853   0.37463   0.07120   0.11803
H          H       0.60691   0.12100   0.39781   0.11709
H          H       0.40169   0.87946   0.18331   0.11834
H          H       0.40198   0.12042   0.36058   0.11974
H          H       0.60151   0.87926   0.17013   0.11919
H          H       0.14838   0.53881   0.06331   0.10454
H          H       0.85661   0.46387   0.48367   0.10366
H          H       0.84265   0.53784   0.21904   0.10476
H          H       0.15919   0.45609   0.32124   0.10457
H          H       0.65220   0.03596   0.05712   0.10397
H          H       0.34702   0.96331   0.35423   0.10533
H          H       0.34280   0.03692   0.15166   0.10638
H          H       0.66085   0.96165   0.32116   0.10506
H          H       0.13824   0.68772   0.18260   0.11991
H          H       0.86055   0.30926   0.25221   0.12118
H          H       0.85472   0.67322   0.13784   0.12108
H          H       0.13821   0.30685   0.23698   0.12160
H          H       0.63785   0.19165   0.24150   0.12135
H          H       0.35919   0.82343   0.38092   0.12259
H          H       0.35859   0.18197   0.19240   0.12224
H          H       0.64391   0.82326   0.36834   0.12094
H          H       0.17374   0.72621   0.16606   0.10540
H          H       0.82515   0.26977   0.26117   0.10759
H          H       0.81857   0.71098   0.11156   0.10103
H          H       0.17315   0.26853   0.26791   0.10759
H          H       0.67200   0.23398   0.24724   0.10688
H          H       0.32289   0.78446   0.38944   0.10143
H          H       0.32289   0.22040   0.16791   0.10470
H          H       0.67834   0.78316   0.38799   0.10019
H          H       0.23636   0.67783   0.34810   0.09972
H          H       0.76125   0.33379   0.21260   0.10455
H          H       0.76387   0.67536   0.37435   0.10783
H          H       0.23563   0.32025   0.13297   0.10001
H          H       0.73791   0.17354   0.30887   0.10566
H          H       0.26494   0.82062   0.11446   0.10052
H          H       0.26500   0.17803   0.38277   0.10221
H          H       0.73458   0.81632   0.12351   0.10740
H          H       0.20106   0.63803   0.35274   0.10795
H          H       0.79670   0.37275   0.20143   0.11002
H          H       0.79900   0.63612   0.38728   0.10155
H          H       0.20102   0.35916   0.11021   0.11094
H          H       0.70378   0.13230   0.30897   0.11049
H          H       0.30079   0.86023   0.11223   0.10539
H          H       0.30011   0.13878   0.39844   0.10680
H          H       0.70090   0.85716   0.11202   0.10244
H          H       0.26317   0.69539   0.21690   0.10059
H          H       0.73594   0.28955   0.11567   0.09835
H          H       0.73179   0.69138   0.22946   0.10609
H          H       0.26318   0.30355   0.27340   0.10182
H          H       0.76163   0.21759   0.40654   0.09821
H          H       0.23579   0.80910   0.28369   0.10330
H          H       0.23504   0.19035   0.21266   0.10261
H          H       0.76561   0.80154   0.27374   0.10621
H          H       0.20077   0.76939   0.28943   0.10330
H          H       0.79643   0.25514   0.38548   0.10419
H          H       0.79879   0.75848   0.26231   0.10711
H          H       0.19993   0.22776   0.18236   0.10357
H          H       0.70122   0.25126   0.13247   0.10457
H          H       0.29824   0.73550   0.21547   0.10420
H          H       0.29831   0.26600   0.30196   0.10550
H          H       0.69858   0.73450   0.24101   0.10718
H          H       0.16845   0.59484   0.15505   0.06434
H          H       0.83414   0.40995   0.37612   0.06096
H          H       0.82568   0.59279   0.26807   0.06366
H          H       0.17236   0.40067   0.26786   0.06148
H          H       0.67045   0.09254   0.14457   0.05998
H          H       0.32872   0.90715   0.28940   0.05869
H          H       0.32640   0.09412   0.24429   0.06378
H          H       0.67706   0.90397   0.25452   0.06556
H          H       0.11234   0.50017   0.07276   0.10612
H          H       0.89367   0.50229   0.48180   0.10697
H          H       0.88029   0.49929   0.19764   0.10859
H          H       0.12463   0.49744   0.32945   0.10347
H          H       0.61593   0.99605   0.05392   0.11084
H          H       0.38503   0.00192   0.37519   0.10883
H          H       0.38016   0.99665   0.11016   0.11179
H          H       0.62351   0.00084   0.34096   0.10900
H          H       0.07378   0.58852   0.99596   0.11003
H          H       0.94154   0.41789   0.66886   0.10607
H          H       0.93694   0.55574   0.63844   0.09236
H          H       0.06122   0.41937   0.60845   0.10864
H          H       0.55900   0.07518   0.75970   0.10651
H          H       0.43598   0.94134   0.88074   0.09136
H          H       0.43300   0.06162   0.59852   0.09977
H          H       0.56411   0.94016   0.88106   0.08855
H          H       0.10748   0.62719   0.96240   0.11754
H          H       0.90723   0.37394   0.64131   0.11660
H          H       0.90259   0.59687   0.62791   0.10884
H          H       0.09742   0.37780   0.58362   0.11735
H          H       0.59450   0.11681   0.77814   0.11552
H          H       0.39918   0.90212   0.87754   0.11138
H          H       0.39814   0.10466   0.63259   0.10684
H          H       0.59854   0.89819   0.87962   0.10934
H          H       0.14038   0.54195   0.53953   0.10139
H          H       0.84485   0.44919   0.79948   0.10167
H          H       0.85070   0.57125   0.93990   0.10205
H          H       0.15876   0.45894   0.78865   0.10210
H          H       0.65762   0.04663   0.75543   0.09874
H          H       0.34154   0.94542   0.63806   0.09784
H          H       0.35211   0.07014   0.93552   0.09469
H          H       0.64892   0.92551   0.56757   0.10037
H          H       0.13565   0.68969   0.69111   0.12021
H          H       0.86456   0.31077   0.84100   0.11926
H          H       0.86293   0.69080   0.73051   0.12219
H          H       0.13863   0.31284   0.74674   0.12102
H          H       0.63980   0.18055   0.64262   0.11861
H          H       0.35759   0.81917   0.82701   0.12107
H          H       0.36023   0.19278   0.72230   0.12196
H          H       0.63736   0.80389   0.76310   0.12164
H          H       0.17120   0.72735   0.66676   0.10562
H          H       0.82805   0.27450   0.86707   0.10096
H          H       0.82743   0.73357   0.76190   0.10760
H          H       0.17380   0.27498   0.78240   0.10641
H          H       0.67643   0.21812   0.62802   0.10028
H          H       0.32306   0.77505   0.79747   0.10808
H          H       0.32526   0.23502   0.73817   0.10855
H          H       0.67287   0.76138   0.73520   0.10660
H          H       0.23421   0.67860   0.84349   0.10384
H          H       0.76799   0.31742   0.63629   0.10773
H          H       0.76433   0.66264   0.73868   0.10633
H          H       0.23565   0.32382   0.62645   0.10330
H          H       0.73422   0.18089   0.89934   0.10780
H          H       0.25921   0.83108   0.67753   0.10466
H          H       0.26340   0.17443   0.81915   0.10556
H          H       0.73609   0.83256   0.76368   0.10620
H          H       0.19882   0.63920   0.85313   0.11156
H          H       0.80427   0.35303   0.61018   0.10469
H          H       0.79980   0.62105   0.71671   0.10925
H          H       0.20091   0.36266   0.60097   0.10949
H          H       0.69801   0.14302   0.90898   0.10248
H          H       0.29320   0.87530   0.71537   0.10774
H          H       0.29792   0.13206   0.79663   0.10932
H          H       0.70063   0.87402   0.78312   0.10964
H          H       0.25956   0.69354   0.68063   0.10182
H          H       0.73909   0.30247   0.76044   0.10404
H          H       0.74213   0.70924   0.88564   0.09864
H          H       0.26196   0.31243   0.81799   0.10200
H          H       0.76413   0.19308   0.75811   0.10436
H          H       0.23411   0.81040   0.79469   0.09996
H          H       0.23615   0.19475   0.69893   0.10066
H          H       0.75815   0.78590   0.61631   0.09830
H          H       0.19937   0.77152   0.80756   0.10407
H          H       0.80057   0.23177   0.76164   0.10446
H          H       0.79431   0.74748   0.62203   0.10434
H          H       0.20090   0.23163   0.66580   0.10537
H          H       0.70273   0.26372   0.75707   0.10552
H          H       0.29434   0.73234   0.66567   0.10295
H          H       0.29731   0.27572   0.85477   0.10278
H          H       0.70583   0.74723   0.87696   0.10465
H          H       0.16369   0.59609   0.64665   0.06520
H          H       0.83251   0.39532   0.75939   0.05977
H          H       0.83512   0.61130   0.85627   0.06327
H          H       0.17243   0.40447   0.74788   0.06064
H          H       0.67117   0.09846   0.75486   0.06077
H          H       0.32715   0.89682   0.66175   0.06313
H          H       0.33530   0.11676   0.89402   0.06427
H          H       0.66481   0.88386   0.64163   0.06354
H          H       0.10491   0.50357   0.56124   0.10404
H          H       0.87841   0.49262   0.82711   0.09931
H          H       0.88637   0.53460   0.97232   0.09780
H          H       0.12309   0.50041   0.81520   0.10265
H          H       0.62288   0.00568   0.74315   0.10136
H          H       0.37767   0.98495   0.64415   0.10485
H          H       0.38747   0.02868   0.91180   0.09765
H          H       0.61341   0.96392   0.54991   0.09809
C          C       0.48769   0.99640   0.19950  -0.12152
C          C       0.51567   0.99607   0.19332  -0.12547
C          C       0.98867   0.50302   0.31009  -0.11989
C          C       0.01671   0.50285   0.30594  -0.11688
C          C       0.08837   0.57583   0.36131  -0.13187
C          C       0.91173   0.42839   0.14585  -0.13251
C          C       0.91825   0.57168   0.29975  -0.13931
C          C       0.08429   0.42517   0.13555  -0.13396
C          C       0.58874   0.07121   0.32659  -0.12988
C          C       0.41905   0.92762   0.21987  -0.13531
C          C       0.41815   0.07079   0.29900  -0.12812
C          C       0.58521   0.92759   0.20764  -0.13592
C          C       0.10789   0.59769   0.35042  -0.09923
C          C       0.89127   0.40659   0.14931  -0.09790
C          C       0.89697   0.59317   0.30561  -0.08947
C          C       0.10395   0.40165   0.12839  -0.09187
C          C       0.60865   0.09362   0.32446  -0.09275
C          C       0.39808   0.90613   0.21875  -0.09234
C          C       0.39735   0.09336   0.31201  -0.09086
C          C       0.60609   0.90573   0.20239  -0.08899
C          C       0.12985   0.58475   0.24238   0.05005
C          C       0.87140   0.41907   0.27324   0.05551
C          C       0.86925   0.58174   0.28168   0.05339
C          C       0.13117   0.41236   0.19938   0.05858
C          C       0.63171   0.08122   0.22590   0.05740
C          C       0.37142   0.91820   0.26132   0.06019
C          C       0.36964   0.08188   0.26559   0.05965
C          C       0.63387   0.91717   0.23760   0.05153
C          C       0.13150   0.54921   0.14761  -0.13390
C          C       0.87206   0.45400   0.38866  -0.12395
C          C       0.86395   0.54760   0.24497  -0.13164
C          C       0.13817   0.44727   0.26740  -0.13294
C          C       0.63445   0.04578   0.13395  -0.12407
C          C       0.36720   0.95301   0.31365  -0.12695
C          C       0.36392   0.04667   0.19712  -0.12809
C          C       0.63959   0.95180   0.28564  -0.13085
C          C       0.11139   0.52736   0.15399  -0.13292
C          C       0.89282   0.47562   0.38795  -0.12374
C          C       0.88531   0.52574   0.23417  -0.12898
C          C       0.11855   0.47075   0.27350  -0.12575
C          C       0.61422   0.02328   0.13268  -0.12471
C          C       0.38857   0.97488   0.32272  -0.12521
C          C       0.38495   0.02381   0.17592  -0.11822
C          C       0.61849   0.97404   0.29543  -0.12665
C          C       0.08941   0.54006   0.26172   0.08167
C          C       0.91301   0.46313   0.26629   0.07925
C          C       0.91319   0.53757   0.26900   0.08465
C          C       0.09074   0.46059   0.21380   0.08216
C          C       0.59101   0.03565   0.23003   0.08078
C          C       0.41471   0.96245   0.26542   0.08049
C          C       0.41250   0.03542   0.23452   0.07693
C          C       0.59071   0.96216   0.24837   0.08310
C          C       0.15006   0.60704   0.22285   0.06593
C          C       0.85067   0.39700   0.29060   0.06659
C          C       0.84668   0.60314   0.27663   0.06552
C          C       0.15176   0.38917   0.21105   0.06444
C          C       0.65194   0.10426   0.21250   0.06840
C          C       0.34935   0.89619   0.26514   0.07062
C          C       0.34762   0.10492   0.27070   0.06226
C          C       0.65560   0.89452   0.24116   0.06400
C          C       0.15982   0.68579   0.21873  -0.16105
C          C       0.83872   0.31448   0.24510  -0.15443
C          C       0.83456   0.67369   0.18699  -0.15969
C          C       0.15970   0.30964   0.21563  -0.15449
C          C       0.65988   0.18784   0.25427  -0.15274
C          C       0.33841   0.82264   0.32361  -0.15955
C          C       0.33789   0.18121   0.23236  -0.15962
C          C       0.66402   0.82178   0.31710  -0.16015
C          C       0.17987   0.70755   0.21145  -0.12108
C          C       0.81868   0.29252   0.25064  -0.12437
C          C       0.81432   0.69510   0.17493  -0.13145
C          C       0.17946   0.28801   0.23118  -0.12884
C          C       0.67922   0.21142   0.25710  -0.12629
C          C       0.31811   0.80060   0.32598  -0.12741
C          C       0.31784   0.20291   0.22065  -0.12778
C          C       0.68332   0.79910   0.32616  -0.12895
C          C       0.20798   0.70527   0.25685   0.05057
C          C       0.79026   0.29869   0.23909   0.05441
C          C       0.78836   0.69626   0.24173   0.04749
C          C       0.20748   0.29157   0.20593   0.05367
C          C       0.70783   0.20690   0.27490   0.05680
C          C       0.29112   0.79966   0.25263   0.05149
C          C       0.29091   0.20188   0.27106   0.05410
C          C       0.70936   0.79688   0.25896   0.04712
C          C       0.21509   0.67942   0.30514  -0.12693
C          C       0.78296   0.32821   0.22254  -0.12291
C          C       0.78323   0.67399   0.31485  -0.12621
C          C       0.21458   0.31789   0.16324  -0.12839
C          C       0.71605   0.17771   0.29234  -0.12159
C          C       0.28524   0.82210   0.17933  -0.12817
C          C       0.28509   0.17808   0.33370  -0.12665
C          C       0.71528   0.81876   0.18487  -0.12793
C          C       0.19526   0.65684   0.30769  -0.18198
C          C       0.80290   0.35066   0.21947  -0.18152
C          C       0.80315   0.65184   0.32297  -0.17621
C          C       0.19504   0.34006   0.15066  -0.17816
C          C       0.69686   0.15390   0.28857  -0.17650
C          C       0.30536   0.84460   0.17882  -0.17936
C          C       0.30485   0.15579   0.34225  -0.17494
C          C       0.69628   0.84194   0.17828  -0.17668
C          C       0.16719   0.65977   0.26496   0.20028
C          C       0.83121   0.34417   0.23116   0.19967
C          C       0.82936   0.65158   0.26073   0.19481
C          C       0.16716   0.33661   0.17914   0.19814
C          C       0.66833   0.15833   0.26724   0.19846
C          C       0.33236   0.84528   0.25165   0.19345
C          C       0.33163   0.15672   0.28948   0.19321
C          C       0.67023   0.84393   0.24500   0.19510
C          C       0.25702   0.72052   0.23492  -0.13376
C          C       0.74168   0.27435   0.18269  -0.13667
C          C       0.73941   0.71560   0.24060  -0.13212
C          C       0.25680   0.27854   0.25727  -0.13215
C          C       0.75589   0.23254   0.33803  -0.13433
C          C       0.24189   0.78410   0.26832  -0.13369
C          C       0.24139   0.21530   0.22754  -0.13274
C          C       0.75798   0.77732   0.26245  -0.13102
C          C       0.22205   0.76153   0.27072  -0.13178
C          C       0.77575   0.25404   0.32644  -0.13278
C          C       0.77679   0.75287   0.25516  -0.12895
C          C       0.22143   0.23662   0.21058  -0.13269
C          C       0.72187   0.25253   0.19240  -0.13259
C          C       0.27691   0.74321   0.23430  -0.13327
C          C       0.27680   0.25719   0.27331  -0.13221
C          C       0.72058   0.74010   0.24793  -0.12936
C          C       0.22905   0.72914   0.25442   0.06453
C          C       0.76921   0.27553   0.24818   0.05659
C          C       0.76802   0.72133   0.24365   0.06170
C          C       0.22854   0.26883   0.22398   0.06400
C          C       0.72845   0.23097   0.27015   0.05424
C          C       0.26988   0.77561   0.25136   0.06580
C          C       0.26967   0.22487   0.25821   0.06463
C          C       0.72936   0.77156   0.25854   0.06220
C          C       0.43546   0.01285   0.22611  -0.05723
C          C       0.56786   0.98254   0.23153  -0.06204
C          C       0.56800   0.01304   0.22230  -0.04416
C          C       0.43656   0.98301   0.24319  -0.05316
C          C       0.93641   0.51725   0.28129  -0.06650
C          C       0.06818   0.48471   0.24735  -0.05978
C          C       0.06763   0.51791   0.27127  -0.05325
C          C       0.93639   0.48542   0.27501  -0.04594
C          C       0.48485   0.99393   0.69071  -0.11775
C          C       0.51270   0.99207   0.67818  -0.12946
C          C       0.98762   0.50624   0.85267  -0.12472
C          C       0.01547   0.50607   0.84075  -0.10784
C          C       0.08781   0.57837   0.89224  -0.13085
C          C       0.92047   0.42515   0.70213  -0.13451
C          C       0.91801   0.55918   0.70489  -0.13345
C          C       0.08259   0.42819   0.65047  -0.13656
C          C       0.58056   0.06819   0.75416  -0.13818
C          C       0.41526   0.94237   0.82722  -0.13512
C          C       0.41538   0.06341   0.67370  -0.13927
C          C       0.58274   0.93703   0.81223  -0.13461
C          C       0.10688   0.60008   0.87562  -0.09934
C          C       0.90126   0.40021   0.68456  -0.09681
C          C       0.89870   0.58199   0.69694  -0.09694
C          C       0.10274   0.40474   0.63463  -0.09248
C          C       0.60037   0.09199   0.76641  -0.09681
C          C       0.39470   0.92032   0.82644  -0.09847
C          C       0.39576   0.08754   0.69094  -0.10261
C          C       0.60204   0.91365   0.81312  -0.09919
C          C       0.12624   0.58717   0.74884   0.05143
C          C       0.87377   0.40853   0.72581   0.05504
C          C       0.87377   0.58621   0.77859   0.05785
C          C       0.13047   0.41556   0.68990   0.05669
C          C       0.62861   0.08448   0.76199   0.05508
C          C       0.36780   0.92057   0.75531   0.05973
C          C       0.37237   0.09026   0.78427   0.05473
C          C       0.62657   0.90963   0.72791   0.05662
C          C       0.12564   0.55197   0.63935  -0.13154
C          C       0.86620   0.44226   0.77211  -0.13485
C          C       0.86935   0.56742   0.87089  -0.12327
C          C       0.13729   0.45029   0.74877  -0.13625
C          C       0.63586   0.05281   0.75409  -0.13812
C          C       0.36221   0.94489   0.69388  -0.13665
C          C       0.36975   0.06809   0.86028  -0.12676
C          C       0.63056   0.92916   0.63885  -0.12540
C          C       0.10589   0.53042   0.65152  -0.13285
C          C       0.88540   0.46714   0.78978  -0.12769
C          C       0.88913   0.54570   0.88459  -0.13199
C          C       0.11714   0.47375   0.76415  -0.12454
C          C       0.61602   0.02921   0.74460  -0.12661
C          C       0.38265   0.96721   0.69662  -0.12205
C          C       0.38964   0.04439   0.84583  -0.12963
C          C       0.61078   0.95150   0.63197  -0.13079
C          C       0.08678   0.54307   0.77960   0.08301
C          C       0.91351   0.45988   0.76207   0.08792
C          C       0.91354   0.54018   0.79799   0.08360
C          C       0.08896   0.46357   0.72225   0.08244
C          C       0.58750   0.03540   0.73758   0.08672
C          C       0.40996   0.96603   0.75938   0.08163
C          C       0.41278   0.04092   0.74961   0.08448
C          C       0.58679   0.95683   0.72280   0.08304
C          C       0.14640   0.60903   0.72496   0.06976
C          C       0.85332   0.38508   0.73232   0.06775
C          C       0.85302   0.61052   0.78262   0.06993
C          C       0.15164   0.39281   0.69881   0.06419
C          C       0.64997   0.10775   0.76334   0.06693
C          C       0.34622   0.89586   0.73552   0.06612
C          C       0.35163   0.11574   0.80916   0.07043
C          C       0.64724   0.88486   0.71822   0.07234
C          C       0.15733   0.68734   0.72306  -0.16220
C          C       0.84330   0.31188   0.79597  -0.15298
C          C       0.84126   0.68522   0.73532  -0.14872
C          C       0.16000   0.31498   0.72103  -0.15533
C          C       0.66060   0.18088   0.69852  -0.15456
C          C       0.33596   0.82108   0.79168  -0.14690
C          C       0.33899   0.18945   0.74665  -0.15388
C          C       0.65905   0.80967   0.76075  -0.15198
C          C       0.17737   0.70870   0.71208  -0.12173
C          C       0.82263   0.29153   0.80995  -0.12814
C          C       0.82120   0.70892   0.75164  -0.12625
C          C       0.17979   0.29367   0.73932  -0.12472
C          C       0.68125   0.20211   0.69208  -0.12822
C          C       0.31647   0.79627   0.77281  -0.12589
C          C       0.31926   0.21319   0.75752  -0.12886
C          C       0.67912   0.78605   0.74606  -0.12469
C          C       0.20556   0.70600   0.75379   0.04884
C          C       0.79485   0.29333   0.75664   0.04945
C          C       0.79299   0.70156   0.75366   0.05657
C          C       0.20765   0.29682   0.71003   0.05182
C          C       0.70846   0.20210   0.75994   0.04780
C          C       0.28826   0.79933   0.73371   0.05592
C          C       0.29139   0.20829   0.78082   0.05122
C          C       0.70737   0.79354   0.74683   0.05605
C          C       0.21282   0.68027   0.80249  -0.12754
C          C       0.78886   0.31652   0.68770  -0.12606
C          C       0.78598   0.66948   0.74241  -0.12012
C          C       0.21468   0.32219   0.66032  -0.12989
C          C       0.71390   0.17999   0.83609  -0.12893
C          C       0.28071   0.82829   0.71184  -0.12788
C          C       0.28454   0.17868   0.79683  -0.12737
C          C       0.71443   0.82563   0.75840  -0.11971
C          C       0.19296   0.65799   0.80807  -0.18279
C          C       0.80940   0.33688   0.67297  -0.17851
C          C       0.80600   0.64588   0.72925  -0.17957
C          C       0.19509   0.34410   0.64540  -0.18004
C          C       0.69343   0.15844   0.84132  -0.17959
C          C       0.30008   0.85321   0.73121  -0.17267
C          C       0.30417   0.15486   0.78658  -0.17494
C          C       0.69442   0.84918   0.77015  -0.18069
C          C       0.16480   0.66139   0.76955   0.20053
C          C       0.83708   0.33528   0.72931   0.19871
C          C       0.83415   0.65342   0.72659   0.19894
C          C       0.16733   0.34101   0.67721   0.19906
C          C       0.66638   0.15810   0.76976   0.20141
C          C       0.32830   0.85006   0.77099   0.19754
C          C       0.33193   0.15973   0.76077   0.20141
C          C       0.66623   0.84161   0.77140   0.20201
C          C       0.25391   0.71933   0.70766  -0.13154
C          C       0.74488   0.27845   0.75931  -0.13182
C          C       0.74567   0.72541   0.82279  -0.13527
C          C       0.25633   0.28633   0.78809  -0.13266
C          C       0.75845   0.21723   0.76051  -0.13439
C          C       0.23983   0.78461   0.76665  -0.13137
C          C       0.24209   0.22062   0.72662  -0.13098
C          C       0.75467   0.76973   0.67916  -0.13539
C          C       0.22006   0.76253   0.77401  -0.13410
C          C       0.77920   0.23938   0.76370  -0.13059
C          C       0.77529   0.74799   0.68315  -0.13341
C          C       0.22201   0.24156   0.70742  -0.13058
C          C       0.72414   0.25629   0.75596  -0.12860
C          C       0.27367   0.74140   0.69959  -0.13086
C          C       0.27638   0.26546   0.80866  -0.13420
C          C       0.72499   0.74702   0.81778  -0.13449
C          C       0.22657   0.72931   0.74563   0.07036
C          C       0.77303   0.27067   0.76292   0.06297
C          C       0.77137   0.72533   0.75539   0.05247
C          C       0.22869   0.27477   0.73392   0.06542
C          C       0.73032   0.22504   0.75706   0.06444
C          C       0.26723   0.77481   0.73011   0.06348
C          C       0.26996   0.23169   0.77479   0.06384
C          C       0.72896   0.76979   0.74627   0.05279
C          C       0.43417   0.01603   0.73088  -0.05956
C          C       0.56481   0.97884   0.70840  -0.04814
C          C       0.56524   0.01042   0.70903  -0.06072
C          C       0.43307   0.98550   0.74029  -0.05288
C          C       0.93547   0.51859   0.81800  -0.04648
C          C       0.06629   0.48754   0.76556  -0.06249
C          C       0.06545   0.52096   0.79405  -0.05103
C          C       0.93544   0.48592   0.80295  -0.05986
S          S       0.46659   0.02676   0.17791   0.10077
S          S       0.53472   0.96229   0.19451   0.06741
S          S       0.53590   0.02692   0.17376   0.11437
S          S       0.46926   0.96376   0.21489   0.08508
S          S       0.96945   0.53831   0.33001   0.06567
S          S       0.03733   0.46894   0.29014   0.08763
S          S       0.03589   0.53847   0.32855   0.09097
S          S       0.96851   0.46993   0.30935   0.11219
S          S       0.46643   0.02775   0.68560   0.09044
S          S       0.53217   0.95773   0.66532   0.09591
S          S       0.53231   0.02327   0.65795   0.07090
S          S       0.46391   0.96223   0.69718   0.09544
S          S       0.96757   0.54123   0.88155   0.09139
S          S       0.03600   0.47143   0.81304   0.08302
S          S       0.03426   0.54185   0.86284   0.09543
S          S       0.96834   0.47271   0.85254   0.07549
N          N       0.14624   0.63919   0.27619  -0.28116
N          N       0.85223   0.36429   0.21717  -0.27480
N          N       0.85123   0.63162   0.27074  -0.29163
N          N       0.14617   0.35742   0.16595  -0.28519
N          N       0.64791   0.13651   0.27215  -0.28063
N          N       0.35403   0.86601   0.24970  -0.28451
N          N       0.35297   0.13547   0.29263  -0.28478
N          N       0.64956   0.86568   0.23970  -0.28829
N          N       0.14382   0.64152   0.78670  -0.27939
N          N       0.85881   0.35519   0.71918  -0.29179
N          N       0.85559   0.63108   0.71361  -0.28928
N          N       0.14615   0.36146   0.66286  -0.28702
N          N       0.64460   0.13702   0.76781  -0.29090
N          N       0.34958   0.87357   0.79456  -0.29563
N          N       0.35283   0.13649   0.74009  -0.29460
N          N       0.64490   0.86414   0.78654  -0.29174

