data_crystal

_audit_creation_method 'AiiDA-DDEC plugin'

_cell_length_a        53.36633
_cell_length_b        39.60862
_cell_length_c         8.03925

_cell_angle_alpha     90.01337
_cell_angle_beta     115.15419
_cell_angle_gamma     89.90997

_symmetry_space_group_name_Hall 'P 1'
_symmetry_space_group_name_H-M  'P 1'

loop_
_symmetry_equiv_pos_as_xyz
 'x,y,z'

loop_
_atom_site_label
_atom_site_type_symbol
_atom_site_fract_x
_atom_site_fract_y
_atom_site_fract_z
_atom_site_charge
H          H       0.56126   0.97127   0.20371   0.10585
H          H       0.44050   0.97085   0.29510   0.10592
H          H       0.06147   0.47027   0.21345   0.10588
H          H       0.94112   0.47160   0.31020   0.10606
H          H       0.44099   0.03257   0.30265   0.10559
H          H       0.56146   0.03301   0.20781   0.10606
H          H       0.94121   0.53329   0.30748   0.10488
H          H       0.06138   0.53201   0.20831   0.10552
H          H       0.52522   0.87347   0.07232   0.09641
H          H       0.47637   0.87292   0.41878   0.09950
H          H       0.02456   0.37300   0.08138   0.09735
H          H       0.97743   0.37286   0.43623   0.09490
H          H       0.47617   0.12900   0.44365   0.09704
H          H       0.52596   0.12838   0.06087   0.09846
H          H       0.97549   0.62990   0.43558   0.09902
H          H       0.02517   0.62904   0.06021   0.09708
H          H       0.56541   0.84065   0.08987   0.10513
H          H       0.43629   0.83940   0.39271   0.10608
H          H       0.06416   0.33862   0.10383   0.10643
H          H       0.93771   0.33947   0.41731   0.10558
H          H       0.43527   0.16107   0.42278   0.10592
H          H       0.56670   0.16037   0.08315   0.10688
H          H       0.93431   0.66155   0.41031   0.10580
H          H       0.06537   0.66182   0.07962   0.10588
H          H       0.61971   0.90731   0.50997   0.12296
H          H       0.38224   0.90756   0.97923   0.12304
H          H       0.11916   0.40442   0.52593   0.12284
H          H       0.88274   0.40730   0.00607   0.12354
H          H       0.38262   0.09577   0.98748   0.12323
H          H       0.61896   0.09685   0.53086   0.12529
H          H       0.88233   0.59441   0.98313   0.12287
H          H       0.11917   0.59744   0.51661   0.12369
H          H       0.57900   0.94074   0.49033   0.10854
H          H       0.42304   0.94159   0.00605   0.10817
H          H       0.07892   0.43942   0.50200   0.10942
H          H       0.92321   0.44171   0.03003   0.10865
H          H       0.42384   0.06331   0.01063   0.10722
H          H       0.57758   0.06421   0.50552   0.10756
H          H       0.92399   0.56232   0.00962   0.10796
H          H       0.07851   0.56399   0.49435   0.10896
H          H       0.67400   0.14780   0.43499   0.11741
H          H       0.33186   0.14572   0.14918   0.11841
H          H       0.17127   0.65007   0.38235   0.11811
H          H       0.83096   0.64411   0.13617   0.11687
H          H       0.32974   0.85444   0.07146   0.11459
H          H       0.66930   0.85430   0.35205   0.11706
H          H       0.83105   0.34993   0.10167   0.11745
H          H       0.17165   0.34804   0.44682   0.11426
H          H       0.71794   0.17421   0.45619   0.11901
H          H       0.28949   0.17032   0.16225   0.11885
H          H       0.21337   0.67614   0.37475   0.11835
H          H       0.78795   0.66833   0.14123   0.11801
H          H       0.28552   0.82882   0.04929   0.11844
H          H       0.71112   0.82783   0.33962   0.11918
H          H       0.78877   0.32354   0.10705   0.11907
H          H       0.21524   0.32085   0.46631   0.11744
H          H       0.67065   0.25451   0.09777   0.11994
H          H       0.33292   0.26398   0.36090   0.11504
H          H       0.16512   0.76301   0.09597   0.11797
H          H       0.83043   0.76255   0.34175   0.11674
H          H       0.33225   0.74913   0.41609   0.11915
H          H       0.66439   0.73698   0.11814   0.11533
H          H       0.83863   0.24125   0.43123   0.11525
H          H       0.16684   0.24522   0.07767   0.11857
H          H       0.62716   0.22799   0.07754   0.10429
H          H       0.37488   0.23927   0.34713   0.10145
H          H       0.12346   0.73719   0.10856   0.10145
H          H       0.87292   0.73828   0.33413   0.10193
H          H       0.37596   0.77527   0.43928   0.10496
H          H       0.62314   0.76340   0.13470   0.10178
H          H       0.88046   0.26773   0.42518   0.10221
H          H       0.12371   0.27248   0.05882   0.10293
H          H       0.60312   0.18526   0.14589   0.05759
H          H       0.39883   0.19341   0.28458   0.06078
H          H       0.10127   0.69315   0.19490   0.05773
H          H       0.89748   0.69276   0.27189   0.06041
H          H       0.40030   0.82007   0.37440   0.06138
H          H       0.60121   0.80920   0.21491   0.06029
H          H       0.90257   0.31193   0.34200   0.05711
H          H       0.10022   0.31675   0.12982   0.06156
H          H       0.50086   0.88569   0.24682   0.09994
H          H       0.00080   0.38563   0.26062   0.09929
H          H       0.50068   0.11817   0.25323   0.10321
H          H       0.00080   0.61809   0.24741   0.10250
H          H       0.56034   0.96812   0.70221   0.10573
H          H       0.44017   0.96628   0.80054   0.10359
H          H       0.06015   0.46586   0.71329   0.10489
H          H       0.94011   0.46979   0.81384   0.10544
H          H       0.44014   0.02798   0.80729   0.10615
H          H       0.55984   0.02988   0.70283   0.10552
H          H       0.94064   0.53152   0.80728   0.10492
H          H       0.06092   0.52759   0.71139   0.10684
H          H       0.52522   0.87170   0.55935   0.09687
H          H       0.47620   0.86908   0.92881   0.09818
H          H       0.02167   0.36980   0.56410   0.09522
H          H       0.97414   0.37162   0.94833   0.09830
H          H       0.47386   0.12776   0.92237   0.09859
H          H       0.52260   0.12799   0.58063   0.09652
H          H       0.97618   0.62861   0.92804   0.09750
H          H       0.02528   0.62596   0.57204   0.09688
H          H       0.56593   0.84023   0.57315   0.10613
H          H       0.43605   0.83611   0.90705   0.10733
H          H       0.06064   0.33538   0.57932   0.10498
H          H       0.93346   0.33967   0.92479   0.10527
H          H       0.43267   0.16009   0.89077   0.10635
H          H       0.56191   0.16248   0.60249   0.10639
H          H       0.93548   0.66112   0.90428   0.10549
H          H       0.06546   0.65934   0.59630   0.10550
H          H       0.61920   0.90516   0.00798   0.12261
H          H       0.38202   0.90341   0.48823   0.12361
H          H       0.11672   0.39895   0.00970   0.12397
H          H       0.88079   0.40643   0.49677   0.12268
H          H       0.38059   0.08880   0.49012   0.12232
H          H       0.61774   0.09453   0.00865   0.12406
H          H       0.88234   0.59359   0.48460   0.12220
H          H       0.11937   0.59299   0.02135   0.12279
H          H       0.57807   0.93711   0.99251   0.10831
H          H       0.42288   0.93653   0.50848   0.10997
H          H       0.07692   0.43393   0.99415   0.10940
H          H       0.92217   0.43908   0.52271   0.10897
H          H       0.42226   0.05653   0.51961   0.10862
H          H       0.57765   0.05926   0.98466   0.10989
H          H       0.92351   0.56042   0.51057   0.10774
H          H       0.07866   0.55887   0.99422   0.10821
H          H       0.66839   0.15230   0.92566   0.11500
H          H       0.32860   0.14009   0.62209   0.11580
H          H       0.17050   0.64604   0.89165   0.11667
H          H       0.83156   0.64547   0.63781   0.11745
H          H       0.32901   0.84988   0.57972   0.11764
H          H       0.66911   0.85621   0.84689   0.11632
H          H       0.82653   0.35443   0.60579   0.11724
H          H       0.16792   0.34320   0.91231   0.11609
H          H       0.71174   0.17981   0.94331   0.11855
H          H       0.28595   0.16297   0.63854   0.11773
H          H       0.21303   0.67117   0.88419   0.11865
H          H       0.78933   0.67144   0.64723   0.11905
H          H       0.28522   0.82397   0.56262   0.11802
H          H       0.71225   0.83217   0.84259   0.11912
H          H       0.78344   0.32923   0.60411   0.11788
H          H       0.21116   0.31543   0.93048   0.11871
H          H       0.66264   0.25695   0.56781   0.11801
H          H       0.32793   0.25714   0.84506   0.11651
H          H       0.16604   0.75918   0.61117   0.11877
H          H       0.83437   0.76389   0.85305   0.11549
H          H       0.33275   0.74493   0.93045   0.11804
H          H       0.66940   0.73855   0.63027   0.11628
H          H       0.83069   0.24385   0.91129   0.11919
H          H       0.16200   0.23718   0.56499   0.11656
H          H       0.61970   0.22942   0.55266   0.10255
H          H       0.37004   0.23432   0.82537   0.10179
H          H       0.12398   0.73416   0.62217   0.10196
H          H       0.87613   0.73785   0.84130   0.10220
H          H       0.37619   0.77125   0.94803   0.10418
H          H       0.62666   0.76284   0.63598   0.10225
H          H       0.87329   0.26898   0.90978   0.10170
H          H       0.11915   0.26556   0.54465   0.10335
H          H       0.59689   0.18463   0.62627   0.06085
H          H       0.39494   0.18960   0.76405   0.05895
H          H       0.10116   0.68995   0.70357   0.05762
H          H       0.89904   0.69241   0.77339   0.05840
H          H       0.39994   0.81392   0.87106   0.05989
H          H       0.60219   0.80841   0.70049   0.06033
H          H       0.89689   0.31211   0.83762   0.05925
H          H       0.09610   0.31155   0.61091   0.06071
H          H       0.50085   0.88181   0.74764   0.10202
H          H       0.99821   0.38229   0.75663   0.10221
H          H       0.49927   0.11429   0.75616   0.09944
H          H       0.00125   0.61484   0.74815   0.10164
C          C       0.52460   0.92996   0.25808   0.02585
C          C       0.47733   0.92999   0.23898   0.02279
C          C       0.02457   0.42958   0.26893   0.02413
C          C       0.97765   0.43010   0.25514   0.02580
C          C       0.47748   0.07377   0.24771   0.02664
C          C       0.52429   0.07391   0.25978   0.02534
C          C       0.97755   0.57392   0.24560   0.02648
C          C       0.02442   0.57371   0.25748   0.02532
C          C       0.52411   0.96584   0.24806   0.03204
C          C       0.47781   0.96580   0.25152   0.03443
C          C       0.02429   0.46546   0.25827   0.03221
C          C       0.97823   0.46596   0.26503   0.03381
C          C       0.47798   0.03790   0.25652   0.03105
C          C       0.52401   0.03806   0.24963   0.03175
C          C       0.97818   0.53811   0.25999   0.03194
C          C       0.02412   0.53778   0.25146   0.03228
C          C       0.54530   0.98481   0.22657  -0.13225
C          C       0.45662   0.98452   0.27488  -0.13342
C          C       0.04545   0.48409   0.23449  -0.13258
C          C       0.95714   0.48502   0.28743  -0.13268
C          C       0.45681   0.01900   0.27835  -0.13107
C          C       0.54532   0.01932   0.22780  -0.13331
C          C       0.95718   0.51951   0.28569  -0.13214
C          C       0.04536   0.51862   0.23123  -0.13252
C          C       0.45281   0.91022   0.21854   0.06831
C          C       0.54898   0.91001   0.27640   0.06463
C          C       0.95340   0.41023   0.23838   0.06670
C          C       0.04873   0.40923   0.28632   0.06864
C          C       0.54876   0.09356   0.27807   0.06814
C          C       0.45306   0.09340   0.23188   0.06317
C          C       0.04870   0.59359   0.27264   0.06632
C          C       0.95290   0.59353   0.22608   0.06499
C          C       0.54583   0.88057   0.17161  -0.12757
C          C       0.45575   0.88041   0.32058  -0.12911
C          C       0.04528   0.37970   0.18123  -0.12605
C          C       0.95670   0.38031   0.34005  -0.12755
C          C       0.45571   0.12209   0.34106  -0.12990
C          C       0.54632   0.12181   0.16618  -0.13020
C          C       0.95519   0.62256   0.33227  -0.12947
C          C       0.04570   0.62239   0.16317  -0.12901
C          C       0.56853   0.86182   0.18275  -0.17423
C          C       0.43300   0.86156   0.30607  -0.17134
C          C       0.06774   0.36025   0.19437  -0.17197
C          C       0.93418   0.36124   0.32766  -0.17164
C          C       0.43268   0.14041   0.32788  -0.17772
C          C       0.56940   0.13995   0.17973  -0.17381
C          C       0.93192   0.64064   0.31697  -0.17634
C          C       0.06846   0.64115   0.17546  -0.17613
C          C       0.59564   0.87166   0.30287   0.19462
C          C       0.40596   0.87186   0.18632   0.19475
C          C       0.09493   0.36945   0.31648   0.19429
C          C       0.90700   0.37107   0.20796   0.19513
C          C       0.40585   0.13081   0.20165   0.19745
C          C       0.59612   0.13057   0.30964   0.19241
C          C       0.90520   0.63038   0.19202   0.19805
C          C       0.09548   0.63199   0.30149   0.19536
C          C       0.59886   0.90042   0.41307  -0.14825
C          C       0.40304   0.90066   0.07700  -0.14383
C          C       0.09828   0.39807   0.42774  -0.14308
C          C       0.90367   0.40035   0.10142  -0.14540
C          C       0.40319   0.10264   0.08852  -0.14999
C          C       0.59844   0.10318   0.42692  -0.14648
C          C       0.90288   0.60184   0.08213  -0.15092
C          C       0.09847   0.60384   0.41536  -0.14794
C          C       0.57603   0.91907   0.40077  -0.12230
C          C       0.42589   0.91957   0.09319  -0.12434
C          C       0.07577   0.41765   0.41282  -0.12600
C          C       0.92631   0.41956   0.11644  -0.12286
C          C       0.42629   0.08448   0.10261  -0.12081
C          C       0.57531   0.08500   0.41164  -0.12391
C          C       0.92621   0.58396   0.09805  -0.12069
C          C       0.07565   0.58514   0.40172  -0.12282
C          C       0.67368   0.17106   0.36214  -0.10115
C          C       0.33168   0.17149   0.19529  -0.10020
C          C       0.17032   0.67479   0.32090  -0.10047
C          C       0.83034   0.66999   0.17945  -0.09929
C          C       0.32975   0.83142   0.14522  -0.10080
C          C       0.66870   0.82870   0.30169  -0.09912
C          C       0.83230   0.32636   0.17425  -0.09824
C          C       0.17101   0.32566   0.36663  -0.10274
C          C       0.69793   0.18569   0.37388  -0.12525
C          C       0.30830   0.18514   0.20244  -0.11779
C          C       0.19360   0.68928   0.31631  -0.12023
C          C       0.80661   0.68345   0.18228  -0.12276
C          C       0.30538   0.81714   0.13301  -0.12403
C          C       0.69175   0.81402   0.29474  -0.12006
C          C       0.80898   0.31171   0.17713  -0.12106
C          C       0.19507   0.31062   0.37705  -0.12310
C          C       0.69718   0.21606   0.27840   0.12051
C          C       0.30835   0.21881   0.26265   0.12637
C          C       0.19214   0.72144   0.23492   0.12485
C          C       0.80615   0.71723   0.23974   0.12672
C          C       0.30588   0.78709   0.23029   0.12254
C          C       0.69064   0.78048   0.22983   0.12666
C          C       0.81093   0.28085   0.27138   0.12411
C          C       0.19395   0.28147   0.27174   0.11949
C          C       0.67129   0.23137   0.17228  -0.12614
C          C       0.33280   0.23815   0.31489  -0.12793
C          C       0.16639   0.73850   0.15987  -0.12828
C          C       0.83053   0.73679   0.29524  -0.12688
C          C       0.33176   0.77197   0.33968  -0.12815
C          C       0.66542   0.76251   0.17036  -0.12743
C          C       0.83708   0.26497   0.35950  -0.12677
C          C       0.16780   0.26758   0.15866  -0.12455
C          C       0.64712   0.21641   0.16097  -0.13299
C          C       0.35617   0.22418   0.30713  -0.13998
C          C       0.14320   0.72386   0.16670  -0.13844
C          C       0.85423   0.72305   0.29126  -0.13502
C          C       0.35610   0.78672   0.35239  -0.13278
C          C       0.64245   0.77744   0.17911  -0.13736
C          C       0.86035   0.27992   0.35592  -0.13853
C          C       0.14380   0.28298   0.14849  -0.13030
C          C       0.64782   0.18617   0.25469   0.06240
C          C       0.35605   0.19075   0.24715   0.06085
C          C       0.14466   0.69186   0.24675   0.06295
C          C       0.85456   0.68961   0.23263   0.06132
C          C       0.35554   0.81653   0.25563   0.06334
C          C       0.64371   0.81057   0.24576   0.06233
C          C       0.85846   0.31086   0.26512   0.06248
C          C       0.14489   0.31229   0.25045   0.06266
C          C       0.72166   0.23010   0.28332  -0.07214
C          C       0.28440   0.23239   0.26883  -0.07478
C          C       0.21585   0.73586   0.22923  -0.07267
C          C       0.78176   0.73067   0.24008  -0.07330
C          C       0.28127   0.77321   0.22441  -0.07480
C          C       0.71453   0.76580   0.22781  -0.07641
C          C       0.78719   0.26674   0.27760  -0.07491
C          C       0.21833   0.26753   0.27426  -0.07076
C          C       0.74288   0.24211   0.28263  -0.03719
C          C       0.26303   0.24371   0.27082  -0.03341
C          C       0.23688   0.74806   0.22628  -0.03653
C          C       0.75994   0.74167   0.23651  -0.03524
C          C       0.26002   0.76127   0.22511  -0.03278
C          C       0.73621   0.75418   0.23203  -0.03071
C          C       0.76605   0.25505   0.28095  -0.03260
C          C       0.23971   0.25616   0.27260  -0.03683
C          C       0.62188   0.17170   0.23887   0.07074
C          C       0.38083   0.17648   0.24177   0.06511
C          C       0.11990   0.67711   0.25015   0.06802
C          C       0.87960   0.67561   0.22958   0.06660
C          C       0.38127   0.83149   0.27095   0.06740
C          C       0.61950   0.82564   0.25539   0.06565
C          C       0.88332   0.32631   0.26870   0.06652
C          C       0.11928   0.32801   0.23373   0.06796
C          C       0.50098   0.98380   0.25068   0.00501
C          C       0.00127   0.48373   0.26052   0.00519
C          C       0.50098   0.01996   0.25201   0.00564
C          C       0.00122   0.51993   0.25764   0.00486
C          C       0.50094   0.91317   0.24795  -0.18539
C          C       0.00100   0.41308   0.26155  -0.18495
C          C       0.50081   0.09070   0.25326  -0.18891
C          C       0.00088   0.59062   0.24957  -0.18789
C          C       0.52404   0.92646   0.75696   0.02693
C          C       0.47705   0.92580   0.74291   0.02460
C          C       0.02251   0.42579   0.76333   0.02327
C          C       0.97595   0.42729   0.75654   0.02616
C          C       0.47604   0.06982   0.74786   0.02510
C          C       0.52300   0.07032   0.76109   0.02366
C          C       0.97735   0.57124   0.74520   0.02576
C          C       0.02445   0.56996   0.76124   0.02789
C          C       0.52338   0.96233   0.74842   0.03176
C          C       0.47733   0.96165   0.75517   0.03157
C          C       0.02284   0.46172   0.75674   0.03246
C          C       0.97697   0.46316   0.76660   0.03174
C          C       0.47688   0.03392   0.75851   0.03447
C          C       0.52282   0.03448   0.74978   0.03430
C          C       0.97765   0.53541   0.76043   0.03270
C          C       0.02377   0.53405   0.75476   0.03142
C          C       0.54432   0.98150   0.72525  -0.13119
C          C       0.45612   0.98017   0.77941  -0.13200
C          C       0.04432   0.47998   0.73487  -0.13447
C          C       0.95615   0.48277   0.78944  -0.13346
C          C       0.45601   0.01467   0.78219  -0.13407
C          C       0.54404   0.01600   0.72568  -0.13325
C          C       0.95645   0.51727   0.78601  -0.13209
C          C       0.04477   0.51449   0.73403  -0.13055
C          C       0.45267   0.90586   0.72458   0.06925
C          C       0.54854   0.90711   0.77193   0.06432
C          C       0.95131   0.40805   0.73966   0.06866
C          C       0.04624   0.40509   0.77440   0.06878
C          C       0.54707   0.09055   0.77695   0.06874
C          C       0.45128   0.08940   0.72592   0.06547
C          C       0.04888   0.58962   0.77872   0.06541
C          C       0.95298   0.59164   0.72391   0.06608
C          C       0.54574   0.87862   0.66108  -0.12857
C          C       0.45559   0.87645   0.82974  -0.12857
C          C       0.04244   0.37617   0.66413  -0.12594
C          C       0.95374   0.37898   0.84620  -0.13013
C          C       0.45350   0.11963   0.82331  -0.12671
C          C       0.54341   0.12066   0.67601  -0.12653
C          C       0.95574   0.62126   0.82694  -0.12649
C          C       0.04583   0.61907   0.67381  -0.12864
C          C       0.56868   0.86059   0.67024  -0.17643
C          C       0.43281   0.85782   0.81734  -0.17549
C          C       0.06461   0.35661   0.67285  -0.17365
C          C       0.93065   0.36075   0.83179  -0.17270
C          C       0.43021   0.13802   0.80466  -0.17346
C          C       0.56570   0.14020   0.68887  -0.17139
C          C       0.93277   0.63991   0.81213  -0.17542
C          C       0.06853   0.63809   0.68865  -0.17206
C          C       0.59560   0.87029   0.79445   0.19558
C          C       0.40575   0.86799   0.69705   0.19278
C          C       0.09196   0.36509   0.79539   0.19222
C          C       0.90380   0.37082   0.70693   0.19546
C          C       0.40343   0.12685   0.68564   0.19952
C          C       0.59299   0.13046   0.80634   0.19515
C          C       0.90585   0.62982   0.68983   0.19606
C          C       0.09555   0.62859   0.81281   0.19708
C          C       0.59847   0.89828   0.90914  -0.14868
C          C       0.40284   0.89644   0.58536  -0.14545
C          C       0.09574   0.39317   0.91097  -0.14496
C          C       0.90142   0.39927   0.59607  -0.14492
C          C       0.40118   0.09713   0.58408  -0.14797
C          C       0.59672   0.10113   0.91317  -0.14477
C          C       0.90305   0.60091   0.58164  -0.14738
C          C       0.09861   0.59973   0.92216  -0.14632
C          C       0.57544   0.91614   0.89913  -0.12039
C          C       0.42572   0.91495   0.59837  -0.12172
C          C       0.07347   0.41274   0.90087  -0.12232
C          C       0.92458   0.41748   0.61183  -0.12476
C          C       0.42453   0.07903   0.60241  -0.12391
C          C       0.57428   0.08148   0.89819  -0.12312
C          C       0.92610   0.58237   0.59762  -0.12293
C          C       0.07582   0.58068   0.90573  -0.12428
C          C       0.66765   0.17522   0.84921  -0.09684
C          C       0.32804   0.16559   0.67063  -0.10043
C          C       0.16999   0.67077   0.83148  -0.09962
C          C       0.83170   0.67132   0.68396  -0.09820
C          C       0.32938   0.82702   0.65572  -0.09851
C          C       0.66970   0.83054   0.80073  -0.09823
C          C       0.82704   0.33026   0.67137  -0.09946
C          C       0.16704   0.32028   0.83556  -0.09634
C          C       0.69150   0.19046   0.85885  -0.12128
C          C       0.30449   0.17831   0.67969  -0.12375
C          C       0.19345   0.68474   0.82728  -0.12312
C          C       0.80844   0.68570   0.68933  -0.12184
C          C       0.30521   0.81256   0.64599  -0.12283
C          C       0.69348   0.81717   0.79842  -0.12371
C          C       0.80322   0.31625   0.67040  -0.12502
C          C       0.19093   0.30479   0.84612  -0.12200
C          C       0.69004   0.22039   0.75850   0.12230
C          C       0.30409   0.21161   0.74361   0.12867
C          C       0.19241   0.71703   0.74854   0.12532
C          C       0.80898   0.71947   0.74958   0.12756
C          C       0.30607   0.78253   0.74421   0.12151
C          C       0.69374   0.78360   0.73758   0.12698
C          C       0.80418   0.28481   0.75742   0.12350
C          C       0.18950   0.27455   0.74807   0.12233
C          C       0.66378   0.23441   0.64787  -0.12940
C          C       0.32818   0.23162   0.79603  -0.12564
C          C       0.16691   0.73462   0.67372  -0.12748
C          C       0.83382   0.73810   0.80540  -0.12609
C          C       0.33205   0.76765   0.85289  -0.12727
C          C       0.66925   0.76417   0.67848  -0.12534
C          C       0.82984   0.26782   0.84324  -0.12582
C          C       0.16321   0.26037   0.64042  -0.12734
C          C       0.63995   0.21884   0.63893  -0.13311
C          C       0.35165   0.21865   0.78552  -0.13413
C          C       0.14353   0.72043   0.67953  -0.13634
C          C       0.85703   0.72344   0.79896  -0.13868
C          C       0.35618   0.78252   0.86269  -0.13411
C          C       0.64548   0.77789   0.68156  -0.13649
C          C       0.85355   0.28208   0.84279  -0.13431
C          C       0.13935   0.27641   0.62897  -0.13524
C          C       0.64147   0.18914   0.73872   0.06020
C          C       0.35214   0.18547   0.72403   0.06173
C          C       0.14460   0.68841   0.75833   0.06165
C          C       0.85637   0.69004   0.73731   0.06086
C          C       0.35530   0.81224   0.76452   0.06032
C          C       0.64532   0.81110   0.74346   0.06089
C          C       0.85271   0.31344   0.75827   0.06241
C          C       0.14078   0.30658   0.72522   0.06102
C          C       0.71438   0.23506   0.76507  -0.07423
C          C       0.28013   0.22443   0.75295  -0.07411
C          C       0.21628   0.73110   0.74418  -0.07412
C          C       0.78500   0.73385   0.75122  -0.07600
C          C       0.28161   0.76837   0.73873  -0.07156
C          C       0.71805   0.77003   0.73720  -0.07505
C          C       0.78020   0.27123   0.76235  -0.07262
C          C       0.21385   0.25977   0.75422  -0.07293
C          C       0.73591   0.24685   0.76843  -0.03390
C          C       0.25884   0.23550   0.75709  -0.03430
C          C       0.23731   0.74311   0.74067  -0.03438
C          C       0.76332   0.74563   0.74582  -0.03301
C          C       0.26038   0.75636   0.73914  -0.03610
C          C       0.73970   0.75849   0.74092  -0.03303
C          C       0.75913   0.25968   0.76733  -0.03679
C          C       0.23544   0.24803   0.75774  -0.03485
C          C       0.61627   0.17310   0.72511   0.06636
C          C       0.37733   0.17202   0.72078   0.06917
C          C       0.11976   0.67388   0.76067   0.06919
C          C       0.88101   0.67550   0.73137   0.06868
C          C       0.38095   0.82687   0.77663   0.06968
C          C       0.62036   0.82515   0.74713   0.06672
C          C       0.87826   0.32762   0.76476   0.06873
C          C       0.11549   0.32283   0.71106   0.06807
C          C       0.50025   0.98000   0.75270   0.00658
C          C       0.00018   0.48047   0.76165   0.00653
C          C       0.50001   0.01619   0.75416   0.00437
C          C       0.00056   0.51669   0.75936   0.00629
C          C       0.50066   0.90929   0.74926  -0.18834
C          C       0.99888   0.40975   0.75891  -0.18704
C          C       0.49944   0.08683   0.75527  -0.18491
C          C       0.00099   0.58737   0.75098  -0.18798
N          N       0.62118   0.14502   0.32965  -0.29763
N          N       0.38144   0.14572   0.18978  -0.28320
N          N       0.11988   0.64710   0.31353  -0.28702
N          N       0.88055   0.64478   0.17943  -0.28576
N          N       0.38130   0.85673   0.16856  -0.30074
N          N       0.61969   0.85644   0.30961  -0.28535
N          N       0.88268   0.35523   0.19195  -0.29398
N          N       0.11940   0.35356   0.33469  -0.30047
N          N       0.61712   0.14686   0.82356  -0.29976
N          N       0.37869   0.14121   0.67161  -0.28996
N          N       0.11984   0.64397   0.82565  -0.29153
N          N       0.88146   0.64472   0.67892  -0.28650
N          N       0.38104   0.85316   0.68119  -0.29886
N          N       0.61995   0.85564   0.80361  -0.28510
N          N       0.87889   0.35636   0.69012  -0.29366
N          N       0.11616   0.34876   0.81110  -0.29792

