data_crystal

_audit_creation_method 'AiiDA-DDEC plugin'

_cell_length_a        33.98276
_cell_length_b        33.95136
_cell_length_c         8.08138

_cell_angle_alpha     90.33493
_cell_angle_beta     90.39079
_cell_angle_gamma     90.72656

_symmetry_space_group_name_Hall 'P 1'
_symmetry_space_group_name_H-M  'P 1'

loop_
_symmetry_equiv_pos_as_xyz
 'x,y,z'

loop_
_atom_site_label
_atom_site_type_symbol
_atom_site_fract_x
_atom_site_fract_y
_atom_site_fract_z
_atom_site_charge
H          H       0.46147   0.92759   0.35077   0.11920
H          H       0.54080   0.07645   0.85583   0.11683
H          H       0.45519   0.85788   0.43823   0.10570
H          H       0.54116   0.14689   0.94176   0.10785
H          H       0.54803   0.82587   0.10698   0.11567
H          H       0.44712   0.16991   0.59907   0.11615
H          H       0.55529   0.89620   0.02279   0.11082
H          H       0.44626   0.09885   0.51520   0.11282
H          H       0.47451   0.78781   0.41167   0.06362
H          H       0.51502   0.21425   0.91848   0.06732
H          H       0.56640   0.36588   0.11957   0.11933
H          H       0.43115   0.63544   0.63912   0.11876
H          H       0.62517   0.41935   0.12862   0.12229
H          H       0.37283   0.58153   0.64730   0.12411
H          H       0.36224   0.42701   0.35461   0.12841
H          H       0.63676   0.57237   0.85471   0.12949
H          H       0.41552   0.36918   0.34189   0.13094
H          H       0.58330   0.62987   0.85882   0.13118
H          H       0.47245   0.47740   0.22684   0.27559
H          H       0.52569   0.52324   0.72054   0.27796
H          H       0.55649   0.64742   0.10346   0.10129
H          H       0.44045   0.35389   0.59987   0.10098
H          H       0.55906   0.72063   0.09441   0.12015
H          H       0.43547   0.28087   0.58595   0.11936
H          H       0.45306   0.72537   0.38091   0.11079
H          H       0.54326   0.27241   0.86321   0.11162
H          H       0.45144   0.65285   0.39402   0.10343
H          H       0.54738   0.34487   0.88201   0.10455
H          H       0.64936   0.44414   0.40736   0.10393
H          H       0.35064   0.55706   0.90900   0.10424
H          H       0.72274   0.44692   0.40980   0.11932
H          H       0.27740   0.55324   0.91704   0.11870
H          H       0.71988   0.54649   0.08375   0.10758
H          H       0.27983   0.44934   0.60976   0.10841
H          H       0.64779   0.54404   0.08544   0.09669
H          H       0.35175   0.45367   0.60258   0.09750
H          H       0.07136   0.46472   0.15628   0.11839
H          H       0.92806   0.53468   0.65489   0.11758
H          H       0.14105   0.46407   0.06576   0.11011
H          H       0.85843   0.53653   0.55976   0.10648
H          H       0.16939   0.55674   0.41365   0.11587
H          H       0.82855   0.44375   0.89838   0.11690
H          H       0.09925   0.55759   0.50282   0.11373
H          H       0.89877   0.44157   0.99157   0.11362
H          H       0.21004   0.49083   0.08589   0.06692
H          H       0.78884   0.51148   0.57631   0.06739
H          H       0.57123   0.09078   0.48874   0.11507
H          H       0.43349   0.90678   0.96517   0.11666
H          H       0.57680   0.16299   0.44155   0.10645
H          H       0.42898   0.83572   0.88940   0.10580
H          H       0.47198   0.15833   0.14020   0.11471
H          H       0.53745   0.84563   0.62185   0.11710
H          H       0.46781   0.08529   0.17973   0.11891
H          H       0.53955   0.91813   0.68188   0.12092
H          H       0.54815   0.22186   0.36897   0.06249
H          H       0.45463   0.77936   0.77815   0.05733
H          H       0.42889   0.63196   0.12225   0.11979
H          H       0.57036   0.36687   0.62186   0.12077
H          H       0.37013   0.57896   0.12951   0.12369
H          H       0.62840   0.42039   0.62068   0.11956
H          H       0.63256   0.56983   0.36820   0.12932
H          H       0.36868   0.43175   0.88645   0.12967
H          H       0.57940   0.62766   0.36978   0.13344
H          H       0.42105   0.37323   0.87868   0.12859
H          H       0.52160   0.52084   0.23212   0.27602
H          H       0.47831   0.47856   0.72952   0.27735
H          H       0.44220   0.34502   0.08234   0.09911
H          H       0.55880   0.65004   0.58355   0.09667
H          H       0.44633   0.27201   0.08030   0.11838
H          H       0.56111   0.72301   0.56990   0.12041
H          H       0.54678   0.27945   0.40676   0.10877
H          H       0.46251   0.72773   0.89990   0.10911
H          H       0.54285   0.35135   0.40445   0.10132
H          H       0.45985   0.65569   0.90889   0.10293
H          H       0.35377   0.55860   0.41421   0.10371
H          H       0.64585   0.44113   0.89810   0.10391
H          H       0.28119   0.56475   0.43451   0.11998
H          H       0.71862   0.43475   0.91220   0.11999
H          H       0.26629   0.46044   0.13536   0.11160
H          H       0.73165   0.54078   0.62895   0.11100
H          H       0.33812   0.45526   0.11084   0.10073
H          H       0.65942   0.54587   0.60804   0.10057
H          H       0.91009   0.56785   0.01437   0.11629
H          H       0.08909   0.43154   0.51183   0.11382
H          H       0.83805   0.57462   0.05576   0.10604
H          H       0.16150   0.42635   0.54572   0.10675
H          H       0.83723   0.47034   0.35588   0.11340
H          H       0.16210   0.52819   0.86551   0.11366
H          H       0.91002   0.46537   0.32439   0.12175
H          H       0.08903   0.53233   0.83584   0.11824
H          H       0.77748   0.54868   0.13490   0.06438
H          H       0.22182   0.45643   0.60829   0.06305
C          C       0.50648   0.98833   0.19483  -0.08111
C          C       0.49908   0.01150   0.69573  -0.08199
C          C       0.50382   0.95482   0.08744   0.03778
C          C       0.50087   0.04476   0.58859   0.03830
C          C       0.50664   0.91589   0.17130   0.07258
C          C       0.49533   0.08373   0.67139   0.07341
C          C       0.48032   0.90529   0.29681  -0.13785
C          C       0.52025   0.09684   0.79975  -0.13621
C          C       0.47687   0.86605   0.34574  -0.12627
C          C       0.52033   0.13637   0.84819  -0.12506
C          C       0.49999   0.83680   0.27136   0.04989
C          C       0.49525   0.16340   0.77016   0.05207
C          C       0.52935   0.84848   0.15892  -0.10243
C          C       0.46745   0.14913   0.65382  -0.10273
C          C       0.53303   0.88749   0.11167  -0.12702
C          C       0.46721   0.10980   0.60701  -0.13039
C          C       0.49398   0.79504   0.30766   0.07365
C          C       0.49882   0.20559   0.80530   0.07185
C          C       0.56490   0.39642   0.15736  -0.18838
C          C       0.43317   0.60478   0.67323  -0.18884
C          C       0.59473   0.42354   0.16191  -0.19145
C          C       0.40359   0.57736   0.67688  -0.19185
C          C       0.57761   0.46017   0.21949   0.19499
C          C       0.42147   0.54066   0.72925   0.19363
C          C       0.52970   0.41666   0.21319   0.19371
C          C       0.46896   0.58465   0.72343   0.19118
C          C       0.39287   0.42962   0.32062  -0.19079
C          C       0.60591   0.56975   0.82290  -0.19547
C          C       0.42023   0.40004   0.31475  -0.19149
C          C       0.57862   0.59937   0.82411  -0.18912
C          C       0.45716   0.41700   0.26620   0.18322
C          C       0.54156   0.58306   0.77186   0.18261
C          C       0.41191   0.46576   0.27454   0.18146
C          C       0.58659   0.53407   0.77048   0.18373
C          C       0.49297   0.39740   0.23928  -0.07222
C          C       0.50609   0.60350   0.74621  -0.07143
C          C       0.39504   0.50319   0.25244  -0.07103
C          C       0.60356   0.49678   0.74396  -0.07398
C          C       0.50393   0.64447   0.25132   0.07278
C          C       0.49426   0.35515   0.74289   0.07291
C          C       0.64308   0.49439   0.24826   0.07594
C          C       0.35670   0.50532   0.75725   0.07516
C          C       0.53464   0.66446   0.16921  -0.12612
C          C       0.46238   0.33610   0.66180  -0.12674
C          C       0.53620   0.70528   0.16335  -0.15343
C          C       0.45949   0.29533   0.65306  -0.15732
C          C       0.50718   0.72834   0.23947   0.20312
C          C       0.48818   0.27137   0.72647   0.20492
C          C       0.47615   0.70866   0.32112  -0.17240
C          C       0.52037   0.29006   0.80665  -0.17532
C          C       0.47491   0.66772   0.32724  -0.11600
C          C       0.52300   0.33096   0.81541  -0.11657
C          C       0.66490   0.46626   0.33547  -0.12260
C          C       0.33489   0.53397   0.84146  -0.12584
C          C       0.70585   0.46772   0.33729  -0.14953
C          C       0.29401   0.53185   0.84632  -0.14718
C          C       0.72683   0.49712   0.25191   0.19821
C          C       0.27297   0.50129   0.76573   0.20090
C          C       0.70509   0.52451   0.15919  -0.17176
C          C       0.29466   0.47304   0.67735  -0.17453
C          C       0.66428   0.52313   0.15881  -0.12123
C          C       0.33542   0.47524   0.67330  -0.11726
C          C       0.00913   0.50457   0.32585  -0.08312
C          C       0.98960   0.49339   0.82462  -0.08299
C          C       0.04317   0.50273   0.42986   0.03977
C          C       0.95559   0.49565   0.92667   0.03954
C          C       0.08137   0.50936   0.34313   0.07201
C          C       0.91727   0.48992   0.83754   0.07071
C          C       0.09277   0.48500   0.21177  -0.13828
C          C       0.90628   0.51474   0.70771  -0.13521
C          C       0.13194   0.48475   0.16099  -0.12886
C          C       0.86717   0.51562   0.65420  -0.12796
C          C       0.16025   0.50929   0.23939   0.05353
C          C       0.83849   0.49133   0.72869   0.05444
C          C       0.14767   0.53674   0.35852  -0.10350
C          C       0.85063   0.46348   0.84637  -0.10470
C          C       0.10870   0.53705   0.40798  -0.12955
C          C       0.88954   0.46251   0.89840  -0.12861
C          C       0.20214   0.50539   0.20304   0.06985
C          C       0.79664   0.49567   0.69029   0.07066
C          C       0.50768   0.01198   0.30996  -0.08347
C          C       0.49814   0.98804   0.81049  -0.08237
C          C       0.50850   0.04483   0.42049   0.03542
C          C       0.49679   0.95503   0.91872   0.03411
C          C       0.51782   0.08407   0.34615   0.07406
C          C       0.48817   0.91626   0.83667   0.07769
C          C       0.55011   0.10560   0.40990  -0.13336
C          C       0.45553   0.89364   0.88598  -0.13468
C          C       0.55293   0.14597   0.38438  -0.12190
C          C       0.45330   0.85384   0.84484  -0.12560
C          C       0.52358   0.16559   0.29433   0.04757
C          C       0.48410   0.83571   0.75890   0.05013
C          C       0.49393   0.14305   0.21360  -0.10183
C          C       0.51457   0.85947   0.69440  -0.10046
C          C       0.49160   0.10252   0.23658  -0.12811
C          C       0.51577   0.89963   0.72876  -0.12812
C          C       0.52392   0.20842   0.29646   0.06663
C          C       0.48323   0.79295   0.74782   0.06436
C          C       0.43036   0.60170   0.16238  -0.19043
C          C       0.56855   0.39753   0.65767  -0.19305
C          C       0.40051   0.57461   0.16460  -0.19414
C          C       0.59820   0.42485   0.65718  -0.18944
C          C       0.41746   0.53804   0.22360   0.19135
C          C       0.58129   0.46168   0.71489   0.19328
C          C       0.46528   0.58174   0.22211   0.19487
C          C       0.53370   0.41764   0.71620   0.19214
C          C       0.60170   0.56752   0.33549  -0.18895
C          C       0.39895   0.43346   0.84658  -0.18843
C          C       0.57439   0.59712   0.33663  -0.19383
C          C       0.42586   0.40352   0.84288  -0.19287
C          C       0.53727   0.58077   0.28442   0.18427
C          C       0.46232   0.41925   0.78350   0.18441
C          C       0.58228   0.53196   0.28251   0.18411
C          C       0.41792   0.46860   0.78898   0.18405
C          C       0.50186   0.60093   0.25353  -0.06976
C          C       0.49721   0.39866   0.74834  -0.06920
C          C       0.59954   0.49509   0.25069  -0.06864
C          C       0.40021   0.50534   0.75866  -0.06892
C          C       0.49276   0.35383   0.24148   0.07574
C          C       0.50829   0.64706   0.74223   0.07330
C          C       0.35172   0.50646   0.26107   0.07079
C          C       0.64694   0.49383   0.75105   0.07155
C          C       0.46491   0.33065   0.15430  -0.12849
C          C       0.53753   0.66717   0.65183  -0.12817
C          C       0.46708   0.28975   0.15271  -0.15110
C          C       0.53896   0.70807   0.64400  -0.15398
C          C       0.49706   0.27013   0.23877   0.19920
C          C       0.51081   0.73087   0.72645   0.20000
C          C       0.52424   0.29316   0.33133  -0.17040
C          C       0.48246   0.71104   0.82282  -0.17566
C          C       0.52203   0.33389   0.33159  -0.11446
C          C       0.48118   0.67023   0.82968  -0.11432
C          C       0.33456   0.53772   0.34960  -0.11959
C          C       0.66467   0.46227   0.83509  -0.12002
C          C       0.29403   0.54115   0.36205  -0.15725
C          C       0.70525   0.45864   0.84363  -0.15499
C          C       0.26845   0.51375   0.28396   0.20127
C          C       0.73034   0.48654   0.76856   0.20347
C          C       0.28524   0.48228   0.19592  -0.17433
C          C       0.71301   0.51859   0.68678  -0.17630
C          C       0.32589   0.47899   0.18431  -0.12293
C          C       0.67227   0.52180   0.67717  -0.12070
C          C       0.98568   0.50500   0.20969  -0.07851
C          C       0.01321   0.49291   0.71055  -0.07910
C          C       0.95398   0.50499   0.09356   0.03063
C          C       0.04498   0.49336   0.59652   0.03126
C          C       0.91423   0.51497   0.15931   0.07858
C          C       0.08491   0.48368   0.66331   0.07608
C          C       0.89418   0.54715   0.09220  -0.13562
C          C       0.10517   0.45219   0.59122  -0.13258
C          C       0.85382   0.55062   0.11427  -0.12206
C          C       0.14573   0.44954   0.60990  -0.12177
C          C       0.83258   0.52190   0.20302   0.04873
C          C       0.16694   0.47798   0.70303   0.04990
C          C       0.85356   0.49198   0.28414  -0.10141
C          C       0.14580   0.50674   0.79078  -0.10339
C          C       0.89408   0.48923   0.26595  -0.13415
C          C       0.10512   0.50909   0.77356  -0.12995
C          C       0.78978   0.52331   0.20077   0.06508
C          C       0.20974   0.47771   0.69677   0.07064
N          N       0.53780   0.45569   0.24379  -0.40459
N          N       0.46135   0.54547   0.75115  -0.40431
N          N       0.45084   0.45679   0.24659  -0.25536
N          N       0.54758   0.54340   0.74450  -0.25680
N          N       0.51154   0.76894   0.21850  -0.29405
N          N       0.48326   0.23069   0.70513  -0.29280
N          N       0.22808   0.51899   0.30733  -0.28955
N          N       0.77073   0.48114   0.79025  -0.29010
N          N       0.45717   0.54261   0.25114  -0.40511
N          N       0.54175   0.45699   0.74331  -0.40504
N          N       0.54325   0.54111   0.25843  -0.25412
N          N       0.45648   0.45892   0.75844  -0.25436
N          N       0.49697   0.22889   0.22436  -0.30285
N          N       0.51370   0.77203   0.71359  -0.29219
N          N       0.76802   0.49613   0.26659  -0.30208
N          N       0.23181   0.50159   0.78299  -0.30613

