data_crystal

_audit_creation_method 'AiiDA-DDEC plugin'

_cell_length_a        51.68170
_cell_length_b        51.65059
_cell_length_c         7.96421

_cell_angle_alpha     86.71447
_cell_angle_beta     86.05117
_cell_angle_gamma     120.38952

_symmetry_space_group_name_Hall 'P 1'
_symmetry_space_group_name_H-M  'P 1'

loop_
_symmetry_equiv_pos_as_xyz
 'x,y,z'

loop_
_atom_site_label
_atom_site_type_symbol
_atom_site_fract_x
_atom_site_fract_y
_atom_site_fract_z
_atom_site_charge
H          H       0.38407   0.83078   0.31470   0.06083
H          H       0.61372   0.16761   0.62080   0.06213
H          H       0.70067   0.30939   0.25568   0.10330
H          H       0.29733   0.68945   0.77162   0.10426
H          H       0.60081   0.26885   0.38707   0.10813
H          H       0.39326   0.72401   0.90929   0.10450
H          H       0.56991   0.21332   0.38954   0.11976
H          H       0.42322   0.77894   0.92985   0.12057
H          H       0.64339   0.21367   0.09894   0.10883
H          H       0.35773   0.79084   0.68624   0.10751
H          H       0.67413   0.26883   0.09676   0.10057
H          H       0.32834   0.73649   0.66115   0.10437
H          H       0.46409   0.88285   0.41597   0.11873
H          H       0.53536   0.11303   0.84466   0.11612
H          H       0.49267   0.93821   0.32361   0.11997
H          H       0.50659   0.05855   0.79515   0.11990
H          H       0.41567   0.92983   0.10118   0.11781
H          H       0.58164   0.07185   0.45553   0.11383
H          H       0.38615   0.87544   0.20748   0.10727
H          H       0.61096   0.12563   0.51326   0.10515
H          H       0.17515   0.57149   0.08193   0.06386
H          H       0.83346   0.43185   0.63455   0.06141
H          H       0.70214   0.39323   0.26039   0.10382
H          H       0.29539   0.60516   0.77676   0.10342
H          H       0.73733   0.33648   0.44623   0.10756
H          H       0.25046   0.65873   0.90093   0.10975
H          H       0.79264   0.36549   0.46270   0.11879
H          H       0.19516   0.62980   0.88113   0.12168
H          H       0.80108   0.43597   0.10676   0.10775
H          H       0.20613   0.56627   0.60379   0.10695
H          H       0.74651   0.40710   0.08911   0.10329
H          H       0.26045   0.59561   0.61372   0.10785
H          H       0.13263   0.60025   0.33875   0.11979
H          H       0.86461   0.40074   0.95396   0.12113
H          H       0.07613   0.57363   0.38460   0.11195
H          H       0.91933   0.42586   0.99132   0.11071
H          H       0.07033   0.50640   0.07028   0.11816
H          H       0.93830   0.49865   0.61884   0.11872
H          H       0.12652   0.53344   0.02143   0.10340
H          H       0.88391   0.47365   0.58186   0.10237
H          H       0.44044   0.59513   0.06329   0.06530
H          H       0.56296   0.40568   0.60428   0.06463
H          H       0.61862   0.31081   0.23217   0.10151
H          H       0.37977   0.68781   0.77012   0.10250
H          H       0.67233   0.40519   0.39787   0.10696
H          H       0.32441   0.59251   0.97089   0.10339
H          H       0.64365   0.43178   0.40865   0.11827
H          H       0.35361   0.56609   0.97525   0.11752
H          H       0.57802   0.36573   0.12401   0.10633
H          H       0.41896   0.63242   0.58401   0.10814
H          H       0.60625   0.33964   0.11300   0.10374
H          H       0.39087   0.65904   0.58421   0.10319
H          H       0.40475   0.53449   0.42372   0.11730
H          H       0.59932   0.46914   0.87363   0.11798
H          H       0.42637   0.50413   0.53647   0.10973
H          H       0.57715   0.49966   0.97214   0.11324
H          H       0.50292   0.55184   0.15854   0.11699
H          H       0.50014   0.44837   0.70696   0.11798
H          H       0.48082   0.58125   0.04147   0.10488
H          H       0.52251   0.41865   0.60463   0.10551
H          H       0.60394   0.16960   0.04242   0.06695
H          H       0.39490   0.83723   0.65775   0.05860
H          H       0.31653   0.69952   0.30514   0.10485
H          H       0.68350   0.29765   0.78498   0.09975
H          H       0.40789   0.73352   0.46829   0.10356
H          H       0.58628   0.25401   0.94613   0.10596
H          H       0.43502   0.78897   0.48821   0.11967
H          H       0.56007   0.19849   0.93003   0.12010
H          H       0.37602   0.79726   0.16361   0.10857
H          H       0.63281   0.21142   0.57115   0.10621
H          H       0.34902   0.74271   0.14517   0.10528
H          H       0.65848   0.26579   0.58761   0.10796
H          H       0.53411   0.13244   0.35201   0.11828
H          H       0.45787   0.86358   0.93728   0.11724
H          H       0.50257   0.07708   0.43961   0.11180
H          H       0.48965   0.91709  -0.00356   0.11088
H          H       0.56059   0.06196   0.09777   0.11924
H          H       0.43921   0.94241   0.68897   0.11868
H          H       0.59159   0.11712   0.00852   0.10405
H          H       0.40809   0.88945   0.62669   0.10304
H          H       0.83892   0.46080   0.22733   0.06150
H          H       0.16342   0.54775   0.59973   0.06138
H          H       0.31233   0.61556   0.23906   0.10179
H          H       0.69062   0.38421   0.76358   0.09974
H          H       0.27176   0.67129   0.42522   0.10452
H          H       0.72149   0.31915   0.92973   0.10042
H          H       0.21652   0.64645   0.41883   0.11845
H          H       0.77636   0.34456   0.95638   0.11856
H          H       0.21872   0.58128   0.11420   0.10794
H          H       0.78954   0.42534   0.68401   0.10851
H          H       0.27327   0.60605   0.11797   0.10362
H          H       0.73542   0.40015   0.65470   0.10525
H          H       0.88435   0.42749   0.39135   0.11706
H          H       0.10786   0.56749   0.81163   0.11663
H          H       0.93939   0.44978   0.29583   0.11921
H          H       0.05454   0.54296   0.74432   0.11853
H          H       0.93913   0.52032   0.98458   0.11415
H          H       0.07040   0.48737   0.42103   0.11192
H          H       0.88547   0.50068   0.09771   0.10627
H          H       0.12280   0.51003   0.49827   0.10506
H          H       0.55300   0.38309   0.21230   0.06309
H          H       0.44450   0.61602   0.66996   0.06265
H          H       0.39769   0.69545   0.27528   0.10449
H          H       0.60387   0.30353   0.76746   0.10503
H          H       0.33441   0.59804   0.41238   0.10947
H          H       0.66831   0.40247   0.86721   0.10569
H          H       0.35896   0.56727   0.42439   0.12058
H          H       0.64523   0.43411   0.86879   0.12010
H          H       0.43568   0.63701   0.09846   0.10978
H          H       0.56824   0.36524   0.66167   0.10899
H          H       0.41137   0.66758   0.08774   0.10594
H          H       0.59152   0.33412   0.65263   0.10461
H          H       0.58514   0.46087   0.36488   0.11471
H          H       0.41318   0.53728   0.89868   0.11630
H          H       0.56068   0.49169   0.33051   0.12148
H          H       0.43985   0.50859   0.86809   0.11872
H          H       0.49013   0.42048   0.09460   0.11383
H          H       0.51132   0.58285   0.53665   0.11410
H          H       0.51302   0.38893   0.14255   0.10527
H          H       0.48603   0.61241   0.57876   0.10607
C          C       0.40832   0.84248   0.32911   0.05961
C          C       0.59044   0.15551   0.68353   0.06262
C          C       0.68883   0.32179   0.25127  -0.18859
C          C       0.30920   0.67706   0.77206  -0.18322
C          C       0.70499   0.35317   0.25740   0.08055
C          C       0.29263   0.64559   0.76967   0.07702
C          C       0.63965   0.27328   0.23830   0.05575
C          C       0.35850   0.72578   0.78191   0.05810
C          C       0.60986   0.25701   0.31865  -0.12508
C          C       0.38584   0.73859   0.85451  -0.12905
C          C       0.59250   0.22591   0.32174  -0.14711
C          C       0.40269   0.76936   0.86797  -0.14416
C          C       0.60384   0.20958   0.24106   0.19872
C          C       0.39329   0.78907   0.80726   0.19767
C          C       0.63374   0.22562   0.16080  -0.17290
C          C       0.36594   0.77646   0.73381  -0.16997
C          C       0.65120   0.25686   0.16060  -0.12431
C          C       0.34907   0.74552   0.72118  -0.12357
C          C       0.42383   0.87526   0.30943   0.05046
C          C       0.57433   0.12313   0.67491   0.05393
C          C       0.45346   0.89345   0.35063  -0.10029
C          C       0.54530   0.10362   0.76136  -0.09881
C          C       0.46932   0.92420   0.29887  -0.12561
C          C       0.52941   0.07342   0.73325  -0.13263
C          C       0.45653   0.93689   0.19708   0.07600
C          C       0.54166   0.06233   0.61399   0.07535
C          C       0.42587   0.91972   0.17508  -0.13734
C          C       0.57180   0.08082   0.54260  -0.13329
C          C       0.40950   0.88912   0.23325  -0.12682
C          C       0.58800   0.11091   0.57379  -0.12395
C          C       0.47687   0.96571   0.08735   0.03922
C          C       0.52165   0.03345   0.54306   0.03883
C          C       0.49204   0.99190   0.17457  -0.08670
C          C       0.50693   0.00710   0.66231  -0.08439
C          C       0.16577   0.58043   0.17434   0.07053
C          C       0.83849   0.42172   0.74351   0.07407
C          C       0.68948   0.36895   0.25481  -0.18613
C          C       0.30801   0.62961   0.77457  -0.19065
C          C       0.65818   0.35399   0.24849   0.07829
C          C       0.33940   0.64462   0.77522   0.08113
C          C       0.73779   0.36992   0.26877   0.05968
C          C       0.25974   0.62918   0.76052   0.05661
C          C       0.75135   0.35820   0.37090  -0.12889
C          C       0.24087   0.63883   0.83266  -0.12346
C          C       0.78226   0.37450   0.38219  -0.14586
C          C       0.20985   0.62262   0.82334  -0.15217
C          C       0.80067   0.40332   0.29285   0.19229
C          C       0.19638   0.59590   0.74410   0.19290
C          C       0.78720   0.41481   0.18706  -0.17144
C          C       0.21532   0.58631   0.67064  -0.17291
C          C       0.75637   0.39844   0.17615  -0.12481
C          C       0.24622   0.60273   0.67819  -0.12364
C          C       0.13315   0.56773   0.18400   0.05314
C          C       0.87046   0.43556   0.76663   0.04760
C          C       0.11868   0.57986   0.27999  -0.10056
C          C       0.88094   0.42211   0.88105  -0.09770
C          C       0.08739   0.56507   0.30461  -0.12873
C          C       0.91145   0.43628   0.90199  -0.13155
C          C       0.06965   0.53742   0.23811   0.07226
C          C       0.93241   0.46455   0.81247   0.07520
C          C       0.08389   0.52717   0.12685  -0.14081
C          C       0.92229   0.47721   0.69209  -0.13980
C          C       0.11537   0.54212   0.10142  -0.11978
C          C       0.89169   0.46302   0.67076  -0.12472
C          C       0.03736   0.51736   0.31217   0.03404
C          C       0.96427   0.48157   0.85601   0.03378
C          C       0.01415   0.50867   0.20365  -0.07373
C          C       0.98749   0.48905   0.72273  -0.07572
C          C       0.43084   0.58084   0.18486   0.07111
C          C       0.57320   0.42097   0.70171   0.07193
C          C       0.64281   0.32277   0.23943  -0.17970
C          C       0.35536   0.67612   0.77197  -0.17970
C          C       0.65759   0.30630   0.24120   0.07724
C          C       0.34069   0.69277   0.77416   0.07981
C          C       0.64139   0.37010   0.25611   0.05722
C          C       0.35584   0.62809   0.77915   0.05802
C          C       0.65179   0.39661   0.33653  -0.13126
C          C       0.34515   0.60127   0.88611  -0.13194
C          C       0.63573   0.41157   0.34377  -0.14801
C          C       0.36135   0.58640   0.88953  -0.14681
C          C       0.60837   0.40045   0.27233   0.19629
C          C       0.38874   0.59769   0.78526   0.19464
C          C       0.59806   0.37408   0.18977  -0.16700
C          C       0.39901   0.62411   0.67457  -0.16745
C          C       0.61415   0.35923   0.18328  -0.12331
C          C       0.38306   0.63914   0.67372  -0.12284
C          C       0.44216   0.56095   0.23297   0.05519
C          C       0.56174   0.44093   0.74071   0.05392
C          C       0.42619   0.53797   0.36761  -0.10741
C          C       0.57764   0.46487   0.83861  -0.10581
C          C       0.43837   0.52146   0.43058  -0.12474
C          C       0.56517   0.48155   0.89402  -0.12922
C          C       0.46731   0.52816   0.36397   0.07054
C          C       0.53613   0.47429   0.85682   0.07074
C          C       0.48147   0.54819   0.21631  -0.13811
C          C       0.52185   0.45292   0.74331  -0.13695
C          C       0.46902   0.56459   0.15113  -0.12452
C          C       0.53448   0.43626   0.68605  -0.12542
C          C       0.48396   0.51709   0.46166   0.04558
C          C       0.51968   0.48625   0.95620   0.04346
C          C       0.49632   0.50270   0.36377  -0.08598
C          C       0.50813   0.50129   0.85714  -0.08657
C          C       0.58667   0.16112   0.15239   0.07231
C          C       0.41042   0.84109   0.75385   0.07524
C          C       0.32756   0.68647   0.29056  -0.17984
C          C       0.67318   0.31147   0.77973  -0.18402
C          C       0.31016   0.65565   0.27109   0.08131
C          C       0.69118   0.34287   0.77830   0.08028
C          C       0.37582   0.73385   0.30926   0.05262
C          C       0.62469   0.26404   0.76989   0.05917
C          C       0.40078   0.74747   0.40206  -0.12793
C          C       0.59640   0.24471   0.86317  -0.12867
C          C       0.41595   0.77844   0.41485  -0.15291
C          C       0.58169   0.21359   0.85546  -0.14840
C          C       0.40630   0.79670   0.33611   0.19773
C          C       0.59467   0.20067   0.75471   0.19000
C          C       0.38193   0.78323   0.23897  -0.17541
C          C       0.62274   0.22016   0.65826  -0.16719
C          C       0.36695   0.75245   0.22673  -0.12206
C          C       0.63735   0.25103   0.66723  -0.12754
C          C       0.56580   0.12854   0.18184   0.05280
C          C       0.43002   0.87254   0.78411   0.04610
C          C       0.53954   0.11674   0.29717  -0.10209
C          C       0.45390   0.88099   0.88439  -0.09915
C          C       0.52213   0.08597   0.34550  -0.12926
C          C       0.47149   0.91079   0.91738  -0.12848
C          C       0.53082   0.06617   0.28309   0.07199
C          C       0.46535   0.93299   0.85473   0.07474
C          C       0.55465   0.07733   0.15277  -0.13692
C          C       0.44323   0.92515   0.74385  -0.13997
C          C       0.57208   0.10833   0.10311  -0.12155
C          C       0.42571   0.89529   0.70951  -0.12259
C          C       0.51770   0.03528   0.37393   0.03764
C          C       0.48023   0.96359   0.91619   0.03834
C          C       0.50290   0.01039   0.27686  -0.07721
C          C       0.49573   0.98851   0.78754  -0.08026
C          C       0.84842   0.44673   0.26389   0.05791
C          C       0.15126   0.55709   0.66732   0.06832
C          C       0.32518   0.63951   0.25374  -0.18637
C          C       0.67695   0.35982   0.76788  -0.17970
C          C       0.35655   0.65341   0.25558   0.07617
C          C       0.64562   0.34637   0.76452   0.07664
C          C       0.27709   0.64083   0.27017   0.05715
C          C       0.72400   0.35758   0.78986   0.05736
C          C       0.26043   0.65203   0.35329  -0.12865
C          C       0.73638   0.34220   0.87207  -0.13020
C          C       0.22935   0.63811   0.35120  -0.14747
C          C       0.76711   0.35629   0.88800  -0.15069
C          C       0.21334   0.61245   0.26514   0.19632
C          C       0.78710   0.38634   0.81852   0.20132
C          C       0.22992   0.60094   0.18343  -0.16527
C          C       0.77484   0.40192   0.73665  -0.17139
C          C       0.26098   0.61483   0.18703  -0.12893
C          C       0.74406   0.38776   0.72252  -0.12027
C          C       0.88118   0.46191   0.24385   0.05291
C          C       0.11909   0.54106   0.65455   0.05510
C          C       0.89687   0.44842   0.30769  -0.10185
C          C       0.09923   0.54938   0.73033  -0.10097
C          C       0.92725   0.46059   0.25277  -0.12625
C          C       0.06968   0.53590   0.69110  -0.13589
C          C       0.94173   0.48508   0.12577   0.07440
C          C       0.05996   0.51517   0.56965   0.07584
C          C       0.92732   0.50072   0.07843  -0.13232
C          C       0.07854   0.50440   0.50914  -0.12616
C          C       0.89731   0.48952   0.14044  -0.12533
C          C       0.10779   0.51719   0.55206  -0.12382
C          C       0.96898   0.49008   0.01781   0.03964
C          C       0.03274   0.50835   0.48427   0.03927
C          C       0.99564   0.50109   0.10068  -0.08874
C          C       0.00567   0.49612   0.59678  -0.08576
C          C       0.56646   0.40604   0.24953   0.06105
C          C       0.43114   0.59280   0.73282   0.06283
C          C       0.37334   0.68441   0.27351  -0.19355
C          C       0.62820   0.31471   0.76970  -0.18646
C          C       0.35898   0.70119   0.29186   0.08022
C          C       0.64186   0.29713   0.77468   0.07962
C          C       0.37096   0.63498   0.24853   0.05657
C          C       0.63195   0.36559   0.75884   0.05422
C          C       0.35611   0.60611   0.33911  -0.12702
C          C       0.64693   0.39446   0.81564  -0.12467
C          C       0.36972   0.58891   0.34713  -0.14872
C          C       0.63405   0.41236   0.81857  -0.14927
C          C       0.39851   0.59949   0.26061   0.20049
C          C       0.60551   0.40247   0.76366   0.19961
C          C       0.41336   0.62816   0.16639  -0.17043
C          C       0.59038   0.37373   0.70497  -0.16806
C          C       0.39974   0.64557   0.16174  -0.12603
C          C       0.60350   0.35589   0.70217  -0.12245
C          C       0.55134   0.42337   0.25025   0.04700
C          C       0.44708   0.57622   0.73406   0.04623
C          C       0.56404   0.45208   0.30890  -0.10026
C          C       0.43484   0.54723   0.82128  -0.10116
C          C       0.55040   0.46919   0.28913  -0.13211
C          C       0.44980   0.53130   0.80410  -0.12836
C          C       0.52476   0.45875   0.20162   0.07761
C          C       0.47640   0.54315   0.69184   0.07852
C          C       0.51042   0.42902   0.15819  -0.13503
C          C       0.49021   0.57317   0.61893  -0.13514
C          C       0.52349   0.41147   0.18356  -0.12422
C          C       0.47577   0.58953   0.64086  -0.12542
C          C       0.51582   0.48018   0.13042   0.03203
C          C       0.48720   0.52305   0.62844   0.03057
C          C       0.50467   0.49294   0.24858  -0.07642
C          C       0.49917   0.51101   0.74516  -0.07903
N          N       0.83170   0.41799   0.30683  -0.28440
N          N       0.16484   0.58102   0.74507  -0.30122
N          N       0.59386   0.41713   0.28597  -0.29462
N          N       0.40340   0.58107   0.79758  -0.29488
N          N       0.58422   0.17834   0.25582  -0.29693
N          N       0.41182   0.81943   0.83400  -0.29237
N          N       0.18205   0.60059   0.27092  -0.29967
N          N       0.81764   0.39867   0.84214  -0.29249
N          N       0.41030   0.58077   0.28710  -0.28778
N          N       0.59435   0.42184   0.78321  -0.29028
N          N       0.42227   0.82783   0.34930  -0.28325
N          N       0.57819   0.16909   0.75629  -0.29650

