data_crystal

_audit_creation_method 'AiiDA-DDEC plugin'

_cell_length_a        35.09314
_cell_length_b        35.10162
_cell_length_c         8.15403

_cell_angle_alpha     88.79041
_cell_angle_beta     91.19152
_cell_angle_gamma     91.10519

_symmetry_space_group_name_Hall 'P 1'
_symmetry_space_group_name_H-M  'P 1'

loop_
_symmetry_equiv_pos_as_xyz
 'x,y,z'

loop_
_atom_site_label
_atom_site_type_symbol
_atom_site_fract_x
_atom_site_fract_y
_atom_site_fract_z
_atom_site_charge
H          H       0.44494   0.90645   0.36471   0.12064
H          H       0.55471   0.09529   0.43043   0.11862
H          H       0.43897   0.83597   0.38349   0.10533
H          H       0.55647   0.16561   0.45607   0.10353
H          H       0.54879   0.82574   0.16492   0.11946
H          H       0.45932   0.17487   0.12811   0.11663
H          H       0.55503   0.89665   0.14474   0.11920
H          H       0.45669   0.10392   0.10481   0.12135
H          H       0.46158   0.77429   0.33436   0.06016
H          H       0.53028   0.22630   0.40554   0.06341
H          H       0.56644   0.37348   0.11641   0.11898
H          H       0.43258   0.63009   0.12797   0.11981
H          H       0.62330   0.42531   0.13978   0.12167
H          H       0.37589   0.57751   0.12997   0.12088
H          H       0.37050   0.43087   0.37012   0.12867
H          H       0.63033   0.56947   0.37239   0.12894
H          H       0.42101   0.37479   0.35478   0.13072
H          H       0.57905   0.62546   0.36240   0.13098
H          H       0.47624   0.47891   0.22126   0.27749
H          H       0.52242   0.52204   0.23747   0.27553
H          H       0.55515   0.64578   0.09161   0.10025
H          H       0.44133   0.35528   0.09900   0.10107
H          H       0.55853   0.71670   0.08980   0.12087
H          H       0.43945   0.28441   0.10022   0.12015
H          H       0.46059   0.71779   0.39879   0.10852
H          H       0.54552   0.28316   0.37446   0.10942
H          H       0.45721   0.64792   0.39771   0.10334
H          H       0.54608   0.35304   0.37912   0.10441
H          H       0.64238   0.44578   0.42874   0.10352
H          H       0.35747   0.55648   0.39584   0.10363
H          H       0.71322   0.44326   0.43827   0.12051
H          H       0.28669   0.55786   0.40665   0.12153
H          H       0.71851   0.54112   0.11123   0.10848
H          H       0.27962   0.45577   0.12433   0.10985
H          H       0.64890   0.54387   0.10725   0.09815
H          H       0.34938   0.45515   0.11133   0.10075
H          H       0.09345   0.44517   0.06985   0.12160
H          H       0.90805   0.55258   0.12211   0.12142
H          H       0.16368   0.44559   0.04013   0.10683
H          H       0.83764   0.55903   0.10372   0.10758
H          H       0.17464   0.54083   0.36238   0.11634
H          H       0.82314   0.45425   0.38030   0.11942
H          H       0.10402   0.54177   0.38750   0.11792
H          H       0.89389   0.44730   0.39810   0.11930
H          H       0.22515   0.47648   0.07669   0.06712
H          H       0.77549   0.53837   0.16731   0.06017
H          H       0.44742   0.90569   0.85366   0.11904
H          H       0.55972   0.09560   0.88442   0.12001
H          H       0.44116   0.83498   0.86805   0.10518
H          H       0.56206   0.16618   0.90563   0.10719
H          H       0.55069   0.82516   0.64716   0.11739
H          H       0.45305   0.17351   0.65793   0.11639
H          H       0.55740   0.89626   0.63280   0.11932
H          H       0.44996   0.10262   0.63873   0.12052
H          H       0.46319   0.77420   0.81726   0.05900
H          H       0.53706   0.22655   0.85260   0.06403
H          H       0.56602   0.37153   0.62849   0.12063
H          H       0.43098   0.62960   0.62780   0.11945
H          H       0.62267   0.42389   0.64313   0.12034
H          H       0.37396   0.57785   0.63636   0.12414
H          H       0.36952   0.42960   0.86612   0.12918
H          H       0.62869   0.56818   0.87671   0.12892
H          H       0.42086   0.37392   0.85117   0.13488
H          H       0.57751   0.62424   0.86582   0.13399
H          H       0.47448   0.47833   0.71178   0.27959
H          H       0.52144   0.52098   0.73264   0.27652
H          H       0.55506   0.64355   0.59047   0.09931
H          H       0.44358   0.35529   0.57479   0.09805
H          H       0.55987   0.71438   0.58439   0.12063
H          H       0.44109   0.28434   0.57471   0.11863
H          H       0.46246   0.71832   0.89568   0.10927
H          H       0.53791   0.28214   0.90712   0.10921
H          H       0.45740   0.64851   0.89623   0.10334
H          H       0.54070   0.35199   0.90207   0.10304
H          H       0.64238   0.44399   0.91093   0.10565
H          H       0.35574   0.55250   0.91411   0.10289
H          H       0.71344   0.44335   0.92136   0.12089
H          H       0.28474   0.55417   0.91754   0.11935
H          H       0.71660   0.54576   0.62191   0.10882
H          H       0.27890   0.45728   0.60289   0.10957
H          H       0.64680   0.54607   0.61294   0.09858
H          H       0.34869   0.45614   0.59889   0.09929
H          H       0.08990   0.44436   0.59829   0.12235
H          H       0.90626   0.55711   0.61692   0.12162
H          H       0.16003   0.44146   0.56594   0.11095
H          H       0.83575   0.56308   0.60009   0.10540
H          H       0.17512   0.54518   0.83339   0.11871
H          H       0.82220   0.45809   0.87584   0.11947
H          H       0.10458   0.54920   0.86087   0.12071
H          H       0.89304   0.45192   0.89446   0.11972
H          H       0.22239   0.46819   0.59759   0.06548
H          H       0.77370   0.53840   0.64086   0.06099
C          C       0.50361   0.98165   0.23797  -0.03115
C          C       0.50441   0.01998   0.24128  -0.03416
C          C       0.50284   0.94658   0.24051  -0.07766
C          C       0.50481   0.05493   0.25063  -0.07390
C          C       0.50011   0.90650   0.25091   0.12317
C          C       0.50586   0.09486   0.26436   0.12097
C          C       0.46736   0.88877   0.31918  -0.12906
C          C       0.53420   0.11278   0.36327  -0.12821
C          C       0.46421   0.84930   0.32967  -0.13101
C          C       0.53494   0.15212   0.37753  -0.12742
C          C       0.49330   0.82610   0.27287   0.05589
C          C       0.50807   0.17495   0.29285   0.05461
C          C       0.52625   0.84379   0.20718  -0.10464
C          C       0.47986   0.15706   0.19382  -0.10495
C          C       0.52964   0.88316   0.19593  -0.12546
C          C       0.47854   0.11777   0.18042  -0.12913
C          C       0.48856   0.78482   0.28180   0.06507
C          C       0.50992   0.21609   0.31114   0.06772
C          C       0.56490   0.40227   0.16016  -0.18874
C          C       0.43423   0.60033   0.16369  -0.19084
C          C       0.59375   0.42865   0.17087  -0.19063
C          C       0.40551   0.57371   0.16456  -0.18912
C          C       0.57696   0.46321   0.23051   0.19186
C          C       0.42238   0.53810   0.22132   0.19237
C          C       0.53081   0.42069   0.21635   0.19106
C          C       0.46845   0.58082   0.22008   0.19268
C          C       0.39973   0.43335   0.33153  -0.18982
C          C       0.60048   0.56716   0.33814  -0.18999
C          C       0.42575   0.40462   0.32494  -0.19475
C          C       0.57424   0.59584   0.33293  -0.19109
C          C       0.46113   0.42082   0.27069   0.18480
C          C       0.53830   0.57988   0.28062   0.18301
C          C       0.41794   0.46814   0.27861   0.18312
C          C       0.58157   0.53264   0.28892   0.18158
C          C       0.49531   0.40167   0.24096  -0.07047
C          C       0.50405   0.59937   0.24871  -0.07033
C          C       0.40108   0.50404   0.25133  -0.07144
C          C       0.59814   0.49701   0.26359  -0.06913
C          C       0.50597   0.64149   0.24490   0.07377
C          C       0.49371   0.35962   0.24036   0.07495
C          C       0.64025   0.49534   0.26932   0.07536
C          C       0.35901   0.50555   0.25394   0.07104
C          C       0.53480   0.66169   0.16030  -0.12638
C          C       0.46346   0.33936   0.16364  -0.12794
C          C       0.53672   0.70128   0.15867  -0.15126
C          C       0.46242   0.29979   0.16307  -0.15246
C          C       0.50958   0.72265   0.23997   0.20048
C          C       0.49176   0.27836   0.23808   0.20375
C          C       0.48076   0.70255   0.32615  -0.17401
C          C       0.52219   0.29843   0.31495  -0.17324
C          C       0.47903   0.66299   0.32763  -0.11604
C          C       0.52282   0.33797   0.31692  -0.11568
C          C       0.65921   0.46649   0.35925  -0.12284
C          C       0.34030   0.53491   0.33360  -0.11929
C          C       0.69876   0.46497   0.36464  -0.14820
C          C       0.30076   0.53577   0.34001  -0.15557
C          C       0.72138   0.49209   0.27959   0.19872
C          C       0.27784   0.50744   0.26505   0.20202
C          C       0.70252   0.52069   0.18635  -0.17307
C          C       0.29632   0.47805   0.18440  -0.17576
C          C       0.66298   0.52223   0.18277  -0.12256
C          C       0.33582   0.47737   0.17863  -0.11928
C          C       0.01902   0.49387   0.25800  -0.03302
C          C       0.98074   0.49482   0.26529  -0.03284
C          C       0.05392   0.49369   0.24591  -0.07645
C          C       0.94573   0.49607   0.26681  -0.07543
C          C       0.09384   0.49364   0.22944   0.12053
C          C       0.90578   0.49939   0.26011   0.12107
C          C       0.11128   0.46614   0.13291  -0.13096
C          C       0.88936   0.53118   0.17816  -0.12765
C          C       0.15060   0.46651   0.11679  -0.12771
C          C       0.85003   0.53473   0.16925  -0.13247
C          C       0.17388   0.49347   0.19889   0.05552
C          C       0.82571   0.50702   0.24167   0.05538
C          C       0.15652   0.52059   0.29656  -0.10893
C          C       0.84212   0.47533   0.32364  -0.10550
C          C       0.11726   0.52102   0.31073  -0.12253
C          C       0.88135   0.47152   0.33315  -0.12463
C          C       0.21510   0.49256   0.18129   0.06931
C          C       0.78464   0.51207   0.23110   0.06686
C          C       0.50547   0.98099   0.73505  -0.03245
C          C       0.50522   0.01932   0.73856  -0.03122
C          C       0.50545   0.94591   0.73590  -0.07444
C          C       0.50433   0.05430   0.74556  -0.07813
C          C       0.50286   0.90583   0.74311   0.12294
C          C       0.50491   0.09429   0.75873   0.12150
C          C       0.46990   0.88797   0.80904  -0.12542
C          C       0.53664   0.11282   0.83421  -0.12635
C          C       0.46666   0.84853   0.81736  -0.13084
C          C       0.53777   0.15222   0.84545  -0.12935
C          C       0.49584   0.82549   0.76022   0.05669
C          C       0.50784   0.17458   0.78121   0.05508
C          C       0.52865   0.84325   0.69359  -0.10192
C          C       0.47600   0.15609   0.70777  -0.10042
C          C       0.53221   0.88265   0.68527  -0.12446
C          C       0.47439   0.11676   0.69698  -0.12540
C          C       0.49084   0.78428   0.76969   0.06624
C          C       0.51107   0.21579   0.79037   0.06231
C          C       0.56427   0.40093   0.66425  -0.18755
C          C       0.43251   0.60002   0.66704  -0.19076
C          C       0.59299   0.42751   0.67122  -0.18946
C          C       0.40355   0.57363   0.67067  -0.19197
C          C       0.57601   0.46258   0.72449   0.19179
C          C       0.42042   0.53788   0.72649   0.19216
C          C       0.52990   0.41998   0.71315   0.19215
C          C       0.46679   0.58040   0.72248   0.19149
C          C       0.39862   0.43222   0.82579  -0.19083
C          C       0.59893   0.56606   0.84055  -0.19267
C          C       0.42490   0.40370   0.81854  -0.19446
C          C       0.57267   0.59469   0.83556  -0.19246
C          C       0.45993   0.42018   0.76221   0.18406
C          C       0.53684   0.57888   0.78108   0.18503
C          C       0.41651   0.46723   0.77271   0.18260
C          C       0.58024   0.53175   0.78758   0.18330
C          C       0.49430   0.40117   0.73554  -0.06944
C          C       0.50273   0.59862   0.74833  -0.06967
C          C       0.39957   0.50331   0.75205  -0.07113
C          C       0.59712   0.49639   0.75854  -0.06956
C          C       0.50553   0.64070   0.74211   0.07379
C          C       0.49265   0.35903   0.73614   0.07645
C          C       0.63923   0.49539   0.76296   0.07676
C          C       0.35756   0.50435   0.75603   0.07439
C          C       0.53487   0.66006   0.65717  -0.12685
C          C       0.46409   0.33908   0.64758  -0.12937
C          C       0.53769   0.69960   0.65358  -0.15038
C          C       0.46264   0.29948   0.64720  -0.14896
C          C       0.51121   0.72173   0.73503   0.19957
C          C       0.48955   0.27779   0.73700   0.19783
C          C       0.48209   0.70249   0.82273  -0.17348
C          C       0.51775   0.29764   0.82916  -0.16928
C          C       0.47928   0.66299   0.82459  -0.11752
C          C       0.51932   0.33720   0.82752  -0.11902
C          C       0.65880   0.46596   0.84657  -0.12370
C          C       0.33868   0.53224   0.84372  -0.12168
C          C       0.69840   0.46559   0.85308  -0.14772
C          C       0.29911   0.53319   0.84599  -0.15024
C          C       0.72039   0.49435   0.77512   0.20145
C          C       0.27646   0.50637   0.76016   0.20032
C          C       0.70094   0.52356   0.68843  -0.17489
C          C       0.29524   0.47817   0.67304  -0.17203
C          C       0.66140   0.52396   0.68350  -0.12158
C          C       0.33475   0.47733   0.67106  -0.12024
C          C       0.01768   0.49889   0.75946  -0.03101
C          C       0.97940   0.49998   0.76359  -0.03069
C          C       0.05260   0.49827   0.74997  -0.07887
C          C       0.94438   0.50107   0.76285  -0.07687
C          C       0.09239   0.49670   0.73359   0.12066
C          C       0.90442   0.50405   0.75593   0.12113
C          C       0.10860   0.46613   0.65090  -0.12953
C          C       0.88774   0.53564   0.67352  -0.12793
C          C       0.14780   0.46458   0.63346  -0.13047
C          C       0.84839   0.53872   0.66408  -0.13228
C          C       0.17223   0.49273   0.70102   0.05510
C          C       0.82436   0.51071   0.73604   0.05570
C          C       0.15607   0.52340   0.78254  -0.10729
C          C       0.84101   0.47937   0.81946  -0.10283
C          C       0.11693   0.52560   0.79758  -0.12525
C          C       0.88026   0.47600   0.82944  -0.12490
C          C       0.21328   0.48939   0.68550   0.06513
C          C       0.78327   0.51454   0.72008   0.06557
N          N       0.53848   0.45818   0.25150  -0.40402
N          N       0.46094   0.54272   0.24806  -0.40535
N          N       0.45528   0.45935   0.24818  -0.25393
N          N       0.54383   0.54149   0.26024  -0.25512
N          N       0.51427   0.76236   0.22907  -0.29499
N          N       0.48879   0.23874   0.22284  -0.29691
N          N       0.23824   0.51000   0.28171  -0.29832
N          N       0.76090   0.48739   0.29370  -0.29721
N          N       0.53742   0.45776   0.74306  -0.40592
N          N       0.45898   0.54242   0.75221  -0.40522
N          N       0.45370   0.45862   0.73882  -0.25561
N          N       0.54250   0.54056   0.75885  -0.25424
N          N       0.51680   0.76133   0.72335  -0.29380
N          N       0.48552   0.23807   0.72659  -0.29763
N          N       0.23687   0.51001   0.77199  -0.30370
N          N       0.75998   0.49095   0.79258  -0.29764

