data_crystal

_audit_creation_method 'AiiDA-DDEC plugin'

_cell_length_a        53.38309
_cell_length_b        53.64994
_cell_length_c         8.03839

_cell_angle_alpha     98.57879
_cell_angle_beta     101.13383
_cell_angle_gamma     119.79046

_symmetry_space_group_name_Hall 'P 1'
_symmetry_space_group_name_H-M  'P 1'

loop_
_symmetry_equiv_pos_as_xyz
 'x,y,z'

loop_
_atom_site_label
_atom_site_type_symbol
_atom_site_fract_x
_atom_site_fract_y
_atom_site_fract_z
_atom_site_charge
H          H       0.38396   0.82040   0.07701   0.06330
H          H       0.16640   0.55086   0.16501   0.05901
H          H       0.44325   0.61534   0.12888   0.06638
H          H       0.60313   0.16365   0.13228   0.06251
H          H       0.82365   0.43723   0.15842   0.06205
H          H       0.55319   0.38328   0.14881   0.05937
H          H       0.69324   0.30548   0.28971   0.10317
H          H       0.69492   0.38648   0.29455   0.10380
H          H       0.61338   0.30733   0.28251   0.10194
H          H       0.30729   0.69429   0.27069   0.10113
H          H       0.30758   0.61429   0.26026   0.10446
H          H       0.38856   0.69577   0.27969   0.10244
H          H       0.60155   0.27290   0.39743   0.10492
H          H       0.74037   0.33442   0.40818   0.10813
H          H       0.67413   0.40327   0.50688   0.10332
H          H       0.40789   0.74302   0.46544   0.10934
H          H       0.27864   0.67469   0.45372   0.09854
H          H       0.33659   0.60095   0.35816   0.10822
H          H       0.57362   0.21956   0.39415   0.11847
H          H       0.79372   0.36074   0.40548   0.12186
H          H       0.64912   0.43213   0.50809   0.12017
H          H       0.43441   0.79689   0.47317   0.12142
H          H       0.22468   0.64901   0.44949   0.11799
H          H       0.36357   0.57477   0.34233   0.11803
H          H       0.63860   0.20846   0.20729   0.10932
H          H       0.78067   0.42186   0.16835   0.10881
H          H       0.57295   0.36068   0.07319   0.10605
H          H       0.35364   0.77921   0.10288   0.10759
H          H       0.20406   0.57024   0.07409   0.10960
H          H       0.42979   0.64482   0.17720   0.10668
H          H       0.66503   0.26036   0.19754   0.10467
H          H       0.72788   0.39541   0.16514   0.10307
H          H       0.59729   0.33200   0.07427   0.10460
H          H       0.32736   0.72622   0.09748   0.09959
H          H       0.25733   0.59554   0.07831   0.10412
H          H       0.40232   0.66973   0.18089   0.10296
H          H       0.46122   0.87403   0.41148   0.11392
H          H       0.13906   0.59569   0.38682   0.12140
H          H       0.41065   0.54194   0.23951   0.11580
H          H       0.54282   0.13492   0.35996   0.11822
H          H       0.87194   0.40868   0.34259   0.11715
H          H       0.59887   0.46511   0.41439   0.11704
H          H       0.49275   0.92886   0.43983   0.11921
H          H       0.08575   0.57305   0.39647   0.12129
H          H       0.43465   0.51211   0.24321   0.12338
H          H       0.51360   0.08166   0.36672   0.11921
H          H       0.92671   0.43285   0.36134   0.11825
H          H       0.57780   0.49765   0.41382   0.11828
H          H       0.42020   0.91892   0.03132   0.12052
H          H       0.06176   0.48756   0.07998   0.11826
H          H       0.51012   0.58157   0.12632   0.11983
H          H       0.56984   0.06380   0.11652   0.12021
H          H       0.92322   0.50052   0.14739   0.12059
H          H       0.49275   0.42317   0.04580   0.12113
H          H       0.38935   0.86440   0.00154   0.10699
H          H       0.11494   0.51015   0.07346   0.10540
H          H       0.48566   0.61068   0.11817   0.10718
H          H       0.59779   0.11641   0.10258   0.10475
H          H       0.86878   0.47617   0.12747   0.10763
H          H       0.51398   0.39115   0.04646   0.10419
H          H       0.38527   0.82265   0.58699   0.06277
H          H       0.16295   0.55231   0.61692   0.06035
H          H       0.43330   0.60590   0.60754   0.06625
H          H       0.61414   0.16696   0.66985   0.06687
H          H       0.82258   0.44078   0.64488   0.06224
H          H       0.54666   0.37639   0.64799   0.05959
H          H       0.69461   0.30847   0.78198   0.10406
H          H       0.69273   0.38782   0.78827   0.10287
H          H       0.61291   0.30658   0.77279   0.10386
H          H       0.30797   0.69633   0.77443   0.10207
H          H       0.30626   0.61552   0.76743   0.10213
H          H       0.38818   0.69565   0.78298   0.10182
H          H       0.60495   0.27374   0.90858   0.10375
H          H       0.74072   0.33776   0.89760   0.10728
H          H       0.66959   0.40150   0.00476   0.10769
H          H       0.40792   0.74352   0.97177   0.10671
H          H       0.27723   0.67644   0.94795   0.09970
H          H       0.33042   0.59858   0.83556   0.10540
H          H       0.57904   0.22053   0.90866   0.11477
H          H       0.79398   0.36481   0.89431   0.12165
H          H       0.64256   0.42842   0.00554   0.12033
H          H       0.43544   0.79719   0.97439   0.12231
H          H       0.22325   0.64950   0.94557   0.11803
H          H       0.35548   0.57061   0.82680   0.11893
H          H       0.64073   0.21050   0.67529   0.10973
H          H       0.77983   0.42592   0.66384   0.10764
H          H       0.56971   0.35780   0.55332   0.10769
H          H       0.35567   0.78009   0.59667   0.10812
H          H       0.20527   0.57004   0.59070   0.10768
H          H       0.42912   0.64254   0.71552   0.10985
H          H       0.66566   0.26250   0.66998   0.10244
H          H       0.72699   0.39871   0.66137   0.10360
H          H       0.59626   0.33111   0.55376   0.10389
H          H       0.32870   0.72717   0.59245   0.10123
H          H       0.25824   0.59668   0.59095   0.10732
H          H       0.40391   0.66993   0.71599   0.10627
H          H       0.46503   0.87458   0.90151   0.11798
H          H       0.14058   0.59438   0.91256   0.12169
H          H       0.40468   0.53807   0.77514   0.11474
H          H       0.54397   0.13497   0.81522   0.12029
H          H       0.87182   0.41430   0.84415   0.11413
H          H       0.58980   0.45782   0.91362   0.11652
H          H       0.49696   0.92925   0.92944   0.11894
H          H       0.08785   0.57210   0.93160   0.11811
H          H       0.42770   0.50730   0.78256   0.11807
H          H       0.51308   0.08133   0.81227   0.12205
H          H       0.92650   0.43825   0.86254   0.11951
H          H       0.56743   0.48911   0.91535   0.11970
H          H       0.42170   0.92162   0.55758   0.12160
H          H       0.05940   0.48971   0.55431   0.12031
H          H       0.49899   0.57043   0.60833   0.12223
H          H       0.57796   0.06628   0.64906   0.12151
H          H       0.92220   0.50375   0.62726   0.11971
H          H       0.48331   0.41385   0.54385   0.11692
H          H       0.39067   0.86713   0.52558   0.10648
H          H       0.11189   0.51217   0.53589   0.10488
H          H       0.47514   0.60005   0.59323   0.10792
H          H       0.60811   0.11949   0.64846   0.10634
H          H       0.86782   0.47956   0.60794   0.10518
H          H       0.50563   0.38277   0.54553   0.10361
C          C       0.40514   0.83384   0.18859   0.07051
C          C       0.16130   0.56719   0.22095   0.06554
C          C       0.43319   0.59628   0.18364   0.06959
C          C       0.58890   0.15969   0.22000   0.07065
C          C       0.83505   0.42743   0.22494   0.07082
C          C       0.56977   0.40690   0.22538   0.06721
C          C       0.68180   0.31748   0.28910  -0.17765
C          C       0.68292   0.36297   0.29119  -0.18764
C          C       0.63698   0.31835   0.28514  -0.18585
C          C       0.31934   0.68286   0.27099  -0.18681
C          C       0.31963   0.63784   0.26455  -0.18031
C          C       0.36492   0.68342   0.27600  -0.18112
C          C       0.69785   0.34756   0.28812   0.07844
C          C       0.65253   0.34859   0.28847   0.07475
C          C       0.65149   0.30247   0.28940   0.07975
C          C       0.30404   0.65257   0.26757   0.08048
C          C       0.35027   0.65293   0.26946   0.07494
C          C       0.34977   0.69856   0.27467   0.07734
C          C       0.63526   0.27097   0.29405   0.05613
C          C       0.72963   0.36271   0.28606   0.06073
C          C       0.63742   0.36540   0.29150   0.06078
C          C       0.36573   0.73046   0.27855   0.06382
C          C       0.27215   0.63698   0.26770   0.06130
C          C       0.36675   0.63737   0.26740   0.05560
C          C       0.60910   0.25863   0.34827  -0.13166
C          C       0.74875   0.35306   0.35112  -0.12914
C          C       0.65196   0.39398   0.41184  -0.13104
C          C       0.39620   0.75080   0.38303  -0.12974
C          C       0.26225   0.65192   0.36888  -0.13208
C          C       0.35639   0.61030   0.31245  -0.12663
C          C       0.59342   0.22880   0.34839  -0.14982
C          C       0.77882   0.36787   0.35187  -0.14604
C          C       0.63812   0.41015   0.41374  -0.14533
C          C       0.41110   0.78095   0.38883  -0.14507
C          C       0.23219   0.63772   0.36765  -0.14383
C          C       0.37164   0.59554   0.30586  -0.15085
C          C       0.60323   0.20985   0.29473   0.20459
C          C       0.79128   0.39299   0.28713   0.19362
C          C       0.60919   0.39842   0.29471   0.19817
C          C       0.39641   0.79188   0.28699   0.19258
C          C       0.21066   0.60783   0.26506   0.20213
C          C       0.39815   0.60714   0.25510   0.19748
C          C       0.62990   0.22223   0.24537  -0.17232
C          C       0.77228   0.40288   0.22274  -0.17021
C          C       0.59464   0.36983   0.17285  -0.16851
C          C       0.36575   0.77159   0.18332  -0.17010
C          C       0.22038   0.59284   0.16163  -0.17328
C          C       0.40925   0.63478   0.21570  -0.16681
C          C       0.64526   0.25196   0.24355  -0.11767
C          C       0.74224   0.38794   0.22201  -0.12821
C          C       0.60844   0.35362   0.17281  -0.12559
C          C       0.35084   0.74161   0.18066  -0.12757
C          C       0.25053   0.60713   0.16395  -0.12322
C          C       0.39373   0.64921   0.22037  -0.12187
C          C       0.42343   0.86570   0.20504   0.05747
C          C       0.13048   0.55449   0.22967   0.05187
C          C       0.44657   0.57830   0.18021   0.05828
C          C       0.57231   0.12917   0.23239   0.04819
C          C       0.86682   0.44087   0.23482   0.06047
C          C       0.55789   0.42614   0.23055   0.05867
C          C       0.45281   0.88423   0.32858  -0.09976
C          C       0.12185   0.57213   0.31962  -0.10787
C          C       0.43222   0.55013   0.21319  -0.10245
C          C       0.54835   0.11908   0.30652  -0.11171
C          C       0.88349   0.42873   0.30032  -0.10325
C          C       0.57575   0.45636   0.33458  -0.10091
C          C       0.47017   0.91453   0.34405  -0.12969
C          C       0.09231   0.55960   0.32441  -0.11874
C          C       0.44554   0.53362   0.21505  -0.12648
C          C       0.53218   0.08958   0.31024  -0.12370
C          C       0.91383   0.44217   0.31084  -0.12675
C          C       0.56402   0.47431   0.33431  -0.12474
C          C       0.45854   0.92748   0.23730   0.12099
C          C       0.07013   0.52880   0.23760   0.12646
C          C       0.47413   0.54492   0.18609   0.11967
C          C       0.53990   0.06925   0.24270   0.12037
C          C       0.92871   0.46844   0.25697   0.11899
C          C       0.53384   0.46259   0.22956   0.12442
C          C       0.42895   0.90902   0.11484  -0.13041
C          C       0.07876   0.51112   0.14747  -0.12928
C          C       0.48841   0.57302   0.15117  -0.12789
C          C       0.56416   0.07945   0.17057  -0.13244
C          C       0.91207   0.48074   0.19243  -0.12483
C          C       0.51584   0.43219   0.12685  -0.12856
C          C       0.41187   0.87856   0.09874  -0.12811
C          C       0.10851   0.52384   0.14485  -0.13306
C          C       0.47460   0.58919   0.14676  -0.12912
C          C       0.57977   0.10889   0.16374  -0.12939
C          C       0.88160   0.46694   0.18098  -0.12670
C          C       0.52782   0.41441   0.12801  -0.13152
C          C       0.47646   0.95805   0.24822  -0.07196
C          C       0.04021   0.51593   0.24434  -0.08018
C          C       0.48787   0.52833   0.19448  -0.08081
C          C       0.52351   0.03938   0.24807  -0.07287
C          C       0.95910   0.48136   0.25923  -0.07294
C          C       0.52202   0.48089   0.22484  -0.07595
C          C       0.49201   0.98453   0.25211  -0.03682
C          C       0.01404   0.50464   0.25016  -0.02814
C          C       0.49918   0.51324   0.20510  -0.02974
C          C       0.50866   0.01328   0.25233  -0.03327
C          C       0.98535   0.49241   0.25517  -0.03464
C          C       0.51127   0.49648   0.21577  -0.03282
C          C       0.40711   0.83529   0.69365   0.07182
C          C       0.15984   0.56771   0.70423   0.06302
C          C       0.42549   0.58947   0.68295   0.07211
C          C       0.59609   0.16186   0.73122   0.05844
C          C       0.83445   0.43169   0.71516   0.07504
C          C       0.56251   0.40028   0.72162   0.06084
C          C       0.68247   0.31979   0.78119  -0.17672
C          C       0.68158   0.36428   0.78378  -0.18996
C          C       0.63655   0.31850   0.77611  -0.18500
C          C       0.31950   0.68437   0.77472  -0.18573
C          C       0.31881   0.63896   0.77017  -0.17858
C          C       0.36457   0.68372   0.77996  -0.17925
C          C       0.69756   0.34992   0.78054   0.07960
C          C       0.65109   0.34871   0.77913   0.07784
C          C       0.65222   0.30378   0.78148   0.07904
C          C       0.30372   0.65412   0.77206   0.07933
C          C       0.34936   0.65327   0.77475   0.07319
C          C       0.34992   0.69940   0.77789   0.07767
C          C       0.63722   0.27239   0.78756   0.06288
C          C       0.72935   0.36589   0.77837   0.05703
C          C       0.63473   0.36428   0.78029   0.05976
C          C       0.36635   0.73123   0.78004   0.06333
C          C       0.27185   0.63848   0.77125   0.05994
C          C       0.36464   0.63655   0.77299   0.05732
C          C       0.61236   0.25977   0.85283  -0.13511
C          C       0.74884   0.35656   0.84179  -0.12342
C          C       0.64779   0.39209   0.90541  -0.13199
C          C       0.39672   0.75139   0.88649  -0.12838
C          C       0.26133   0.65328   0.86739  -0.13176
C          C       0.35155   0.60816   0.80334  -0.12656
C          C       0.59779   0.22996   0.85407  -0.13732
C          C       0.77888   0.37181   0.84247  -0.14993
C          C       0.63278   0.40710   0.90726  -0.14366
C          C       0.41211   0.78144   0.88997  -0.14516
C          C       0.23129   0.63841   0.86697  -0.14071
C          C       0.36560   0.59224   0.80002  -0.15088
C          C       0.60730   0.21130   0.78933   0.19518
C          C       0.79098   0.39716   0.77962   0.19682
C          C       0.60402   0.39475   0.78429   0.19576
C          C       0.39797   0.79258   0.78569   0.19164
C          C       0.21041   0.60811   0.76922   0.19960
C          C       0.39349   0.60379   0.76474   0.19983
C          C       0.63266   0.22405   0.72763  -0.16534
C          C       0.77164   0.40678   0.71680  -0.17315
C          C       0.59109   0.36708   0.65637  -0.17214
C          C       0.36738   0.77245   0.68011  -0.16960
C          C       0.22081   0.59326   0.67101  -0.17102
C          C       0.40723   0.63254   0.73933  -0.16980
C          C       0.64711   0.25381   0.72649  -0.12261
C          C       0.74160   0.39136   0.71610  -0.12447
C          C       0.60614   0.35206   0.65595  -0.12657
C          C       0.35203   0.74249   0.67825  -0.12820
C          C       0.25088   0.60820   0.67240  -0.12231
C          C       0.39296   0.64828   0.74227  -0.12341
C          C       0.42591   0.86722   0.71159   0.06161
C          C       0.12964   0.55482   0.72308   0.05166
C          C       0.43857   0.57122   0.68642   0.05495
C          C       0.57818   0.13086   0.73431   0.05334
C          C       0.86624   0.44531   0.72515   0.05583
C          C       0.54945   0.41851   0.72757   0.05679
C          C       0.45607   0.88521   0.82603  -0.10387
C          C       0.12254   0.57158   0.83477  -0.10950
C          C       0.42521   0.54472   0.73853  -0.10614
C          C       0.55104   0.11963   0.77888  -0.11283
C          C       0.88315   0.43376   0.79655  -0.09715
C          C       0.56665   0.44866   0.83255  -0.10016
C          C       0.47366   0.91554   0.84185  -0.12498
C          C       0.09334   0.55920   0.84521  -0.12119
C          C       0.43798   0.52772   0.74261  -0.12504
C          C       0.53389   0.08988   0.77645  -0.12127
C          C       0.91345   0.44708   0.80681  -0.12786
C          C       0.55423   0.46597   0.83289  -0.12155
C          C       0.46152   0.92924   0.74543   0.11971
C          C       0.07003   0.52938   0.74360   0.12193
C          C       0.46507   0.53696   0.69754   0.11979
C          C       0.54346   0.07012   0.73063   0.12200
C          C       0.92815   0.47272   0.74717   0.11869
C          C       0.52401   0.45376   0.72663   0.12488
C          C       0.43107   0.91132   0.63333  -0.12751
C          C       0.07725   0.51244   0.63377  -0.13201
C          C       0.47851   0.56354   0.64589  -0.13040
C          C       0.57065   0.08136   0.68584  -0.13016
C          C       0.91129   0.48445   0.67666  -0.12943
C          C       0.50659   0.42338   0.62399  -0.12717
C          C       0.41383   0.88081   0.61582  -0.12678
C          C       0.10663   0.52507   0.62428  -0.13509
C          C       0.46511   0.58007   0.63813  -0.12553
C          C       0.58750   0.11117   0.68662  -0.13105
C          C       0.88080   0.47073   0.66541  -0.12822
C          C       0.51920   0.40612   0.62561  -0.13623
C          C       0.47961   0.95972   0.75316  -0.06950
C          C       0.04015   0.51709   0.75075  -0.07364
C          C       0.47803   0.51964   0.70321  -0.07415
C          C       0.52654   0.04022   0.73571  -0.07856
C          C       0.95868   0.48543   0.75261  -0.07039
C          C       0.51156   0.47154   0.72263  -0.07626
C          C       0.49507   0.98590   0.75079  -0.03736
C          C       0.01392   0.50679   0.75358  -0.03410
C          C       0.48886   0.50409   0.70947  -0.03490
C          C       0.51169   0.01437   0.74478  -0.02792
C          C       0.98511   0.49559   0.75425  -0.03552
C          C       0.50073   0.48710   0.71667  -0.03176
N          N       0.82168   0.40568   0.29274  -0.30306
N          N       0.59785   0.41703   0.30556  -0.29061
N          N       0.58638   0.18043   0.30433  -0.29147
N          N       0.18115   0.59578   0.27572  -0.28913
N          N       0.41114   0.58995   0.24958  -0.30828
N          N       0.41384   0.82245   0.30015  -0.29934
N          N       0.82147   0.41035   0.78637  -0.30551
N          N       0.59106   0.41184   0.79770  -0.28402
N          N       0.59054   0.18158   0.79507  -0.29248
N          N       0.18111   0.59550   0.78407  -0.29001
N          N       0.40562   0.58587   0.76316  -0.30029
N          N       0.41596   0.82313   0.79863  -0.30151

