data_crystal

_audit_creation_method 'AiiDA-DDEC plugin'

_cell_length_a        41.90874
_cell_length_b        37.00788
_cell_length_c         7.86823

_cell_angle_alpha     91.21629
_cell_angle_beta     86.96933
_cell_angle_gamma     90.23747

_symmetry_space_group_name_Hall 'P 1'
_symmetry_space_group_name_H-M  'P 1'

loop_
_symmetry_equiv_pos_as_xyz
 'x,y,z'

loop_
_atom_site_label
_atom_site_type_symbol
_atom_site_fract_x
_atom_site_fract_y
_atom_site_fract_z
_atom_site_charge
H          H       0.57185   0.53341   0.02777   0.10533
H          H       0.42766   0.53426   0.46345   0.10341
H          H       0.07278   0.03393   0.03567   0.10307
H          H       0.92956   0.03377   0.47823   0.10401
H          H       0.42852   0.46846   0.47157   0.10482
H          H       0.57263   0.46744   0.03326   0.10520
H          H       0.92989   0.96725   0.47603   0.10411
H          H       0.07296   0.96769   0.03182   0.10521
H          H       0.53392   0.64031   0.00450   0.10844
H          H       0.46608   0.64200   0.48231   0.10842
H          H       0.03252   0.14198   0.02790   0.10800
H          H       0.96426   0.14144   0.49178   0.11142
H          H       0.46811   0.36013   0.48496   0.10886
H          H       0.53490   0.36063   0.01383   0.10978
H          H       0.96762   0.85976   0.47300   0.10815
H          H       0.03492   0.85856   0.01554   0.11030
H          H       0.58132   0.67947   0.97656   0.12012
H          H       0.41922   0.68118   0.51785   0.12053
H          H       0.07873   0.18211   0.99313   0.12244
H          H       0.91636   0.17937   0.51274   0.12019
H          H       0.42125   0.32056   0.51874   0.12094
H          H       0.58203   0.32164   0.98018   0.12036
H          H       0.92017   0.82114   0.50964   0.12179
H          H       0.08165   0.81923   0.98919   0.12152
H          H       0.63429   0.60270   0.25353   0.10577
H          H       0.36406   0.60195   0.24915   0.10663
H          H       0.13573   0.10449   0.24393   0.10691
H          H       0.86562   0.09798   0.23251   0.10628
H          H       0.36571   0.39815   0.26037   0.10706
H          H       0.63600   0.40040   0.25931   0.10746
H          H       0.86518   0.90017   0.25756   0.10684
H          H       0.13668   0.90084   0.24388   0.10784
H          H       0.58645   0.56416   0.28532   0.10458
H          H       0.41126   0.56273   0.21402   0.10573
H          H       0.08919   0.06461   0.27893   0.10564
H          H       0.91374   0.05998   0.21374   0.10431
H          H       0.41286   0.43766   0.22737   0.10538
H          H       0.58855   0.43937   0.29172   0.10546
H          H       0.91306   0.93866   0.22027   0.10506
H          H       0.08932   0.93953   0.27550   0.10591
H          H       0.65913   0.65383   0.18957   0.10175
H          H       0.34052   0.65455   0.30991   0.10176
H          H       0.15902   0.15661   0.18551   0.09988
H          H       0.84004   0.14995   0.29011   0.10123
H          H       0.34198   0.34657   0.32123   0.09877
H          H       0.66025   0.34787   0.19092   0.10123
H          H       0.84114   0.84834   0.31316   0.09884
H          H       0.16077   0.84777   0.18906   0.10347
H          H       0.65712   0.77109   0.17868   0.12901
H          H       0.34289   0.77126   0.34019   0.13361
H          H       0.15904   0.27332   0.16509   0.12901
H          H       0.83707   0.26882   0.38682   0.12869
H          H       0.34314   0.22963   0.31560   0.12950
H          H       0.65667   0.23008   0.13834   0.13244
H          H       0.84057   0.73125   0.35384   0.13435
H          H       0.15859   0.73076   0.17130   0.12896
H          H       0.70955   0.79571   0.27684   0.12680
H          H       0.29109   0.79515   0.23905   0.12649
H          H       0.21220   0.29628   0.26216   0.12559
H          H       0.78522   0.29352   0.29057   0.12593
H          H       0.29046   0.20694   0.21537   0.12693
H          H       0.70782   0.20402   0.23667   0.12728
H          H       0.78853   0.70732   0.25284   0.12706
H          H       0.21124   0.70712   0.26517   0.12735
H          H       0.70642   0.67138   0.05173   0.08323
H          H       0.29332   0.67143   0.44756   0.08407
H          H       0.20553   0.17188   0.04289   0.08159
H          H       0.79225   0.16380   0.39102   0.08209
H          H       0.29550   0.32917   0.46324   0.08192
H          H       0.70744   0.33042   0.06392   0.08481
H          H       0.79335   0.83366   0.44897   0.08294
H          H       0.20789   0.82984   0.04531   0.08303
H          H       0.49910   0.62529   0.24076   0.10965
H          H      -0.00041   0.12513   0.25453   0.10960
H          H       0.50153   0.37638   0.25723   0.10937
H          H       0.00097   0.87613   0.24213   0.10828
H          H       0.57016   0.53315   0.51648   0.10344
H          H       0.42884   0.53463   0.97802   0.10286
H          H       0.07356   0.02937   0.53776   0.10604
H          H       0.92997   0.03089   0.98084   0.10291
H          H       0.42925   0.46871   0.98192   0.10419
H          H       0.57065   0.46722   0.52150   0.10282
H          H       0.93014   0.96478   0.98072   0.10352
H          H       0.07303   0.96338   0.53447   0.10391
H          H       0.53184   0.64222   0.52151   0.10843
H          H       0.46432   0.64298   0.98409   0.10994
H          H       0.03456   0.13691   0.52214   0.10863
H          H       0.96824   0.14012   0.97635   0.10802
H          H       0.46639   0.36112   0.99116   0.10964
H          H       0.53457   0.35743   0.53431   0.10975
H          H       0.96620   0.85634   0.97351   0.11050
H          H       0.03276   0.85670   0.50100   0.10823
H          H       0.57858   0.68212   0.49191   0.12160
H          H       0.41623   0.68039   0.01124   0.12113
H          H       0.08090   0.17721   0.49578   0.12033
H          H       0.92178   0.18005   0.00267   0.12310
H          H       0.41920   0.32202   0.01976   0.12120
H          H       0.58229   0.31952   0.50421   0.12228
H          H       0.91822   0.81892   0.00878   0.12115
H          H       0.07854   0.81609   0.46669   0.12065
H          H       0.63511   0.60201   0.72797   0.10773
H          H       0.36464   0.59807   0.74056   0.10748
H          H       0.13597   0.10035   0.76247   0.10722
H          H       0.86563   0.09762   0.76023   0.10669
H          H       0.36532   0.40007   0.75422   0.10750
H          H       0.63630   0.40335   0.74932   0.10717
H          H       0.86448   0.90012   0.76210   0.10682
H          H       0.13459   0.89237   0.74907   0.10793
H          H       0.58784   0.56266   0.76108   0.10648
H          H       0.41310   0.56078   0.71450   0.10528
H          H       0.08915   0.06046   0.79057   0.10548
H          H       0.91236   0.05788   0.73561   0.10704
H          H       0.41287   0.43889   0.72476   0.10566
H          H       0.58822   0.44154   0.77581   0.10576
H          H       0.91307   0.93707   0.72434   0.10601
H          H       0.08830   0.93276   0.78414   0.10584
H          H       0.65823   0.65513   0.68194   0.10200
H          H       0.33860   0.64921   0.80378   0.10148
H          H       0.15953   0.15280   0.70373   0.09995
H          H       0.84312   0.15171   0.79775   0.10055
H          H       0.34088   0.34809   0.81327   0.10059
H          H       0.66093   0.35058   0.70234   0.10163
H          H       0.83889   0.84876   0.82455   0.10132
H          H       0.15759   0.84022   0.67922   0.10052
H          H       0.65525   0.77270   0.67741   0.12925
H          H       0.33714   0.76679   0.84187   0.12871
H          H       0.15924   0.26986   0.64931   0.12862
H          H       0.84245   0.27098   0.88188   0.13266
H          H       0.34318   0.23117   0.81947   0.12977
H          H       0.66113   0.23184   0.64768   0.12835
H          H       0.83822   0.73161   0.85879   0.13174
H          H       0.15331   0.72367   0.67257   0.13380
H          H       0.70708   0.79702   0.78317   0.12679
H          H       0.28430   0.78938   0.74671   0.12680
H          H       0.21181   0.29494   0.74158   0.12708
H          H       0.79095   0.29641   0.78307   0.12727
H          H       0.29069   0.20638   0.72405   0.12629
H          H       0.71305   0.20694   0.73973   0.12760
H          H       0.78569   0.70822   0.75633   0.12646
H          H       0.20547   0.70054   0.77524   0.12602
H          H       0.70496   0.67333   0.54907   0.08325
H          H       0.29056   0.66461   0.93771   0.08296
H          H       0.20637   0.16728   0.56729   0.08323
H          H       0.79607   0.16681   0.89272   0.08192
H          H       0.29384   0.33073   0.94866   0.08328
H          H       0.70961   0.33379   0.57703   0.08297
H          H       0.79144   0.83365   0.96436   0.08162
H          H       0.20325   0.82180   0.53893   0.08263
H          H       0.49936   0.62550   0.74844   0.10873
H          H       0.00100   0.12165   0.75145   0.10828
H          H       0.50048   0.37650   0.75883   0.10887
H          H      -0.00003   0.87268   0.74350   0.10977
C          C       0.52724   0.57789   0.18596   0.02995
C          C       0.47154   0.57790   0.30150   0.02416
C          C       0.02831   0.07802   0.19733   0.02577
C          C       0.97262   0.07733   0.31299   0.02707
C          C       0.47313   0.42372   0.31312   0.02526
C          C       0.52870   0.42399   0.19649   0.02505
C          C       0.97330   0.92355   0.30585   0.02573
C          C       0.02901   0.92358   0.18992   0.02447
C          C       0.52705   0.53945   0.17706   0.03038
C          C       0.47233   0.53960   0.31376   0.03104
C          C       0.02828   0.03951   0.18687   0.03116
C          C       0.97370   0.03908   0.32486   0.02920
C          C       0.47322   0.46221   0.32076   0.03232
C          C       0.52786   0.46222   0.18314   0.03282
C          C       0.97399   0.96192   0.32115   0.03175
C          C       0.02855   0.96201   0.18276   0.03188
C          C       0.55265   0.51906   0.09592  -0.13174
C          C       0.44725   0.51957   0.39832  -0.13331
C          C       0.05361   0.01928   0.10247  -0.13334
C          C       0.94866   0.01896   0.40923  -0.13179
C          C       0.44769   0.48264   0.40217  -0.13456
C          C       0.55306   0.48214   0.09880  -0.13534
C          C       0.94883   0.98201   0.40776  -0.13329
C          C       0.05373   0.98230   0.10052  -0.13432
C          C       0.55640   0.59934   0.14817   0.07278
C          C       0.44252   0.59940   0.34360   0.07545
C          C       0.05702   0.10004   0.15639   0.07527
C          C       0.94293   0.09805   0.34845   0.07626
C          C       0.44423   0.40203   0.35350   0.07587
C          C       0.55795   0.40276   0.15730   0.07582
C          C       0.94409   0.90222   0.34432   0.07543
C          C       0.05811   0.90203   0.15030   0.07601
C          C       0.55584   0.63220   0.06118  -0.12529
C          C       0.44376   0.63309   0.43009  -0.12420
C          C       0.05518   0.13362   0.07587  -0.12554
C          C       0.94268   0.13192   0.43366  -0.12745
C          C       0.44564   0.36860   0.43538  -0.12615
C          C       0.55702   0.36929   0.06906  -0.12684
C          C       0.94514   0.86867   0.42514  -0.12579
C          C       0.05708   0.86780   0.06842  -0.12637
C          C       0.58273   0.65425   0.04385  -0.10388
C          C       0.41710   0.65530   0.45152  -0.10426
C          C       0.08151   0.15643   0.05523  -0.10217
C          C       0.91544   0.15334   0.44679  -0.10292
C          C       0.41906   0.34617   0.45531  -0.10187
C          C       0.58376   0.34725   0.04910  -0.10507
C          C       0.91821   0.84685   0.44691  -0.10249
C          C       0.08376   0.84553   0.05160  -0.10271
C          C       0.61161   0.64432   0.11495   0.09301
C          C       0.38774   0.64478   0.38492   0.09729
C          C       0.11132   0.14661   0.11647   0.09682
C          C       0.88702   0.14188   0.37275   0.09497
C          C       0.38958   0.35618   0.39122   0.09527
C          C       0.61282   0.35772   0.11911   0.09806
C          C       0.88872   0.85765   0.38556   0.09777
C          C       0.11310   0.85662   0.11682   0.09499
C          C       0.61236   0.61075   0.19679  -0.12362
C          C       0.38633   0.61048   0.30326  -0.12572
C          C       0.11325   0.11253   0.19301  -0.12701
C          C       0.88710   0.10737   0.29203  -0.12674
C          C       0.38802   0.39016   0.31347  -0.12575
C          C       0.61393   0.39178   0.20337  -0.12735
C          C       0.88759   0.89164   0.30766  -0.12718
C          C       0.11441   0.89153   0.19252  -0.12642
C          C       0.58550   0.58890   0.21373  -0.13790
C          C       0.41290   0.58829   0.28376  -0.13767
C          C       0.08699   0.08981   0.21207  -0.13536
C          C       0.91421   0.08592   0.28119  -0.13797
C          C       0.41453   0.41252   0.29520  -0.13777
C          C       0.58724   0.41385   0.22138  -0.13875
C          C       0.91446   0.91341   0.28750  -0.13683
C          C       0.08771   0.91357   0.20929  -0.13920
C          C       0.64012   0.66639   0.12200  -0.15180
C          C       0.35945   0.66694   0.38149  -0.15415
C          C       0.13981   0.16884   0.11826  -0.15113
C          C       0.85821   0.16302   0.36472  -0.15369
C          C       0.36123   0.33383   0.38586  -0.15054
C          C       0.64110   0.33554   0.12083  -0.15101
C          C       0.85985   0.83609   0.38389  -0.15288
C          C       0.14154   0.83474   0.12212  -0.15530
C          C       0.64669   0.70109   0.07314   0.00504
C          C       0.35289   0.70154   0.43775   0.01003
C          C       0.14668   0.20315   0.06474   0.00814
C          C       0.85036   0.19711   0.42433   0.00510
C          C       0.35467   0.29901   0.43288   0.00811
C          C       0.64733   0.30096   0.06273   0.00690
C          C       0.85240   0.80228   0.44209   0.00712
C          C       0.14805   0.79987   0.06963   0.00485
C          C       0.67715   0.71841   0.11574   0.01496
C          C       0.32265   0.71864   0.39494   0.01502
C          C       0.17758   0.21991   0.10465   0.01673
C          C       0.81968   0.21365   0.38582   0.01674
C          C       0.32397   0.28221   0.38961   0.01730
C          C       0.67743   0.28310   0.10150   0.01539
C          C       0.82167   0.78519   0.40219   0.01726
C          C       0.17864   0.78308   0.10888   0.01479
C          C       0.67862   0.75457   0.17277  -0.08825
C          C       0.32141   0.75458   0.34200  -0.08877
C          C       0.18007   0.25606   0.16037  -0.08707
C          C       0.81681   0.25109   0.36489  -0.08700
C          C       0.32193   0.24660   0.32569  -0.08664
C          C       0.67826   0.24642   0.14353  -0.08748
C          C       0.81960   0.74854   0.35341  -0.08893
C          C       0.18014   0.74735   0.16448  -0.09006
C          C       0.70729   0.76819   0.22782  -0.13865
C          C       0.29302   0.76776   0.28463  -0.13862
C          C       0.20913   0.26873   0.21509  -0.13880
C          C       0.78837   0.26484   0.31126  -0.13775
C          C       0.29297   0.23400   0.26953  -0.14091
C          C       0.70629   0.23203   0.19918  -0.14064
C          C       0.79095   0.73517   0.29695  -0.13998
C          C       0.20891   0.73430   0.21751  -0.13922
C          C       0.73415   0.74554   0.22484   0.16577
C          C       0.26621   0.74485   0.28117   0.16351
C          C       0.23535   0.24514   0.21361   0.16524
C          C       0.76307   0.24106   0.27918   0.16258
C          C       0.26630   0.25703   0.27847   0.16626
C          C       0.73317   0.25454   0.21244   0.16630
C          C       0.76464   0.75843   0.29108   0.16542
C          C       0.23579   0.75717   0.21493   0.16765
C          C       0.70589   0.69867   0.10723   0.03759
C          C       0.29401   0.69861   0.39642   0.03555
C          C       0.20579   0.19922   0.09737   0.03825
C          C       0.79209   0.19252   0.36284   0.04025
C          C       0.29547   0.30236   0.40270   0.03429
C          C       0.70624   0.30266   0.10783   0.03225
C          C       0.79342   0.80571   0.40154   0.03500
C          C       0.20743   0.80296   0.09984   0.03715
C          C       0.62485   0.72252   0.98729   0.23687
C          C       0.37432   0.72312   0.53046   0.23522
C          C       0.12488   0.22453   0.97851   0.23816
C          C       0.87135   0.21911   0.51813   0.23767
C          C       0.37644   0.27722   0.51711   0.23589
C          C       0.62534   0.27978   0.97157   0.23713
C          C       0.87346   0.78136   0.53529   0.23680
C          C       0.12598   0.77782   0.98362   0.23539
C          C       0.49922   0.59590   0.24212  -0.18532
C          C       0.00019   0.09573   0.25522  -0.18613
C          C       0.50114   0.40579   0.25593  -0.18346
C          C       0.00106   0.90554   0.24555  -0.18289
C          C       0.49985   0.52024   0.24653   0.00630
C          C       0.00115   0.02001   0.25535   0.00612
C          C       0.50028   0.48151   0.24999   0.00494
C          C       0.00128   0.98126   0.25349   0.00602
C          C       0.52715   0.57798   0.68697   0.02575
C          C       0.47194   0.57802   0.80870   0.02662
C          C       0.02900   0.07408   0.69638   0.02686
C          C       0.97330   0.07441   0.81220   0.02423
C          C       0.47275   0.42410   0.81553   0.02477
C          C       0.52824   0.42376   0.69651   0.02389
C          C       0.97285   0.92050   0.80884   0.02395
C          C       0.02819   0.91986   0.68946   0.02626
C          C       0.52674   0.53951   0.67702   0.03129
C          C       0.47277   0.53975   0.82166   0.03035
C          C       0.02858   0.03566   0.68576   0.03124
C          C       0.97399   0.03611   0.82467   0.03297
C          C       0.47325   0.46251   0.82577   0.03227
C          C       0.52736   0.46207   0.68246   0.03156
C          C       0.97389   0.95885   0.82360   0.03222
C          C       0.02820   0.95826   0.68289   0.03062
C          C       0.55154   0.51895   0.58972  -0.13369
C          C       0.44792   0.51987   0.90891  -0.13320
C          C       0.05395   0.01516   0.60324  -0.13326
C          C       0.94902   0.01620   0.91102  -0.13485
C          C       0.44814   0.48296   0.91090  -0.13336
C          C       0.55185   0.48202   0.59266  -0.13392
C          C       0.94904   0.97926   0.91094  -0.13403
C          C       0.05371   0.97818   0.60149  -0.13371
C          C       0.55605   0.59947   0.64503   0.07354
C          C       0.44252   0.59899   0.84640   0.07422
C          C       0.05804   0.09570   0.65952   0.07263
C          C       0.94426   0.09611   0.85090   0.07607
C          C       0.44350   0.40289   0.85439   0.07434
C          C       0.55754   0.40247   0.65825   0.07673
C          C       0.94340   0.89973   0.84732   0.07480
C          C       0.05684   0.89788   0.64595   0.07403
C          C       0.55446   0.63344   0.56820  -0.12577
C          C       0.44251   0.63304   0.92985  -0.12371
C          C       0.05675   0.12898   0.57662  -0.12532
C          C       0.94573   0.13081   0.92775  -0.12407
C          C       0.44427   0.36962   0.93772  -0.12605
C          C       0.55689   0.36772   0.58146  -0.12617
C          C       0.94390   0.86602   0.92667  -0.12415
C          C       0.05507   0.86463   0.55617  -0.12577
C          C       0.58100   0.65597   0.55012  -0.10223
C          C       0.41515   0.65425   0.94622  -0.10508
C          C       0.08313   0.15174   0.56030  -0.10320
C          C       0.91928   0.15342   0.94385  -0.10641
C          C       0.41745   0.34754   0.95519  -0.10420
C          C       0.58402   0.34613   0.56412  -0.10320
C          C       0.91658   0.84487   0.94803  -0.10251
C          C       0.08117   0.84160   0.53556  -0.10382
C          C       0.61070   0.64535   0.60966   0.09679
C          C       0.38638   0.64225   0.87740   0.09664
C          C       0.11234   0.14209   0.62857   0.09713
C          C       0.88975   0.14230   0.88078   0.09975
C          C       0.38834   0.35781   0.88767   0.09633
C          C       0.61335   0.35823   0.62636   0.09587
C          C       0.88720   0.85664   0.88900   0.09725
C          C       0.11047   0.85091   0.60628   0.09604
C          C       0.61252   0.61069   0.68031  -0.12722
C          C       0.38633   0.60773   0.79718  -0.12797
C          C       0.11383   0.10822   0.70738  -0.12766
C          C       0.88804   0.10696   0.80993  -0.12692
C          C       0.38734   0.39177   0.80937  -0.12812
C          C       0.61408   0.39345   0.69930  -0.12593
C          C       0.88667   0.89071   0.81158  -0.12774
C          C       0.11246   0.88483   0.69094  -0.12769
C          C       0.58599   0.58833   0.69782  -0.13461
C          C       0.41358   0.58660   0.78274  -0.13607
C          C       0.08747   0.08555   0.72237  -0.13710
C          C       0.91441   0.08439   0.79624  -0.13902
C          C       0.41413   0.41377   0.79316  -0.13599
C          C       0.58708   0.41507   0.71377  -0.13769
C          C       0.91400   0.91171   0.79108  -0.13733
C          C       0.08640   0.90776   0.71029  -0.13617
C          C       0.63899   0.66772   0.61653  -0.15495
C          C       0.35724   0.66293   0.87257  -0.15496
C          C       0.14060   0.16452   0.63284  -0.15484
C          C       0.86152   0.16441   0.87176  -0.15385
C          C       0.35995   0.33563   0.88046  -0.15323
C          C       0.64234   0.33713   0.63198  -0.15463
C          C       0.85793   0.83587   0.89034  -0.15448
C          C       0.13817   0.82792   0.61116  -0.15003
C          C       0.64515   0.70264   0.56998   0.00850
C          C       0.34954   0.69731   0.92792   0.00527
C          C       0.14735   0.19845   0.57398   0.00522
C          C       0.85435   0.19888   0.92809   0.00881
C          C       0.35343   0.30093   0.92923   0.00688
C          C       0.64989   0.30276   0.57524   0.00730
C          C       0.85051   0.80194   0.94676   0.00783
C          C       0.14376   0.79277   0.56060   0.00618
C          C       0.67546   0.72015   0.61319   0.01559
C          C       0.31854   0.71314   0.88926   0.01433
C          C       0.17808   0.21587   0.61007   0.01655
C          C       0.82412   0.21619   0.88664   0.01586
C          C       0.32301   0.28360   0.88596   0.01583
C          C       0.68049   0.28575   0.61404   0.01519
C          C       0.81951   0.78536   0.90955   0.01574
C          C       0.17382   0.77545   0.60443   0.01686
C          C       0.67673   0.75617   0.67237  -0.08679
C          C       0.31613   0.74935   0.84192  -0.08754
C          C       0.18031   0.25282   0.65224  -0.08716
C          C       0.82186   0.25361   0.86196  -0.08483
C          C       0.32161   0.24755   0.82750  -0.08975
C          C       0.68227   0.24894   0.65305  -0.08580
C          C       0.81724   0.74889   0.85864  -0.08732
C          C       0.17493   0.74012   0.66537  -0.09044
C          C       0.70516   0.76969   0.73111  -0.13939
C          C       0.28723   0.76187   0.78860  -0.13786
C          C       0.20911   0.26669   0.70426  -0.13836
C          C       0.79359   0.26777   0.80733  -0.14059
C          C       0.29290   0.23391   0.77307  -0.13757
C          C       0.71082   0.23502   0.70454  -0.14022
C          C       0.78851   0.73591   0.80195  -0.13936
C          C       0.20345   0.72736   0.72317  -0.13927
C          C       0.73202   0.74704   0.72896   0.16643
C          C       0.26103   0.73812   0.78425   0.16565
C          C       0.23538   0.24345   0.71304   0.16445
C          C       0.76775   0.24445   0.77930   0.16418
C          C       0.26600   0.25653   0.77679   0.16728
C          C       0.73746   0.25796   0.71610   0.16576
C          C       0.76237   0.75947   0.79797   0.16465
C          C       0.23044   0.75006   0.71923   0.16492
C          C       0.70422   0.70051   0.60557   0.03557
C          C       0.29039   0.69214   0.89070   0.03685
C          C       0.20638   0.19545   0.61143   0.03508
C          C       0.79627   0.19554   0.86426   0.03902
C          C       0.29430   0.30338   0.89391   0.03603
C          C       0.70909   0.30587   0.61890   0.03601
C          C       0.79134   0.80603   0.91291   0.03981
C          C       0.20261   0.79522   0.59646   0.03554
C          C       0.62321   0.72415   0.48562   0.23715
C          C       0.37088   0.72007   0.01544   0.23853
C          C       0.12562   0.21898   0.48319   0.23941
C          C       0.87556   0.22017   0.02361   0.23735
C          C       0.37518   0.27968   0.01642   0.23668
C          C       0.62873   0.28083   0.48230   0.23703
C          C       0.87208   0.78012   0.03201   0.23700
C          C       0.12156   0.77138   0.47240   0.23743
C          C       0.49947   0.59609   0.74810  -0.18527
C          C       0.00107   0.09225   0.75277  -0.18296
C          C       0.50055   0.40590   0.75714  -0.18299
C          C       0.00028   0.90209   0.74700  -0.18439
C          C       0.49994   0.52033   0.75091   0.00633
C          C       0.00125   0.01662   0.75482   0.00609
C          C       0.50023   0.48158   0.75327   0.00581
C          C       0.00116   0.97787   0.75401   0.00553
N          N       0.73352   0.71134   0.16095  -0.28909
N          N       0.26667   0.71085   0.34055  -0.28596
N          N       0.23372   0.21092   0.15107  -0.28780
N          N       0.76473   0.20530   0.30995  -0.28904
N          N       0.26757   0.29069   0.34811  -0.28847
N          N       0.73321   0.28933   0.16306  -0.28644
N          N       0.76578   0.79317   0.34737  -0.28806
N          N       0.23513   0.79092   0.15256  -0.28904
N          N       0.60641   0.74245   0.41016  -0.34950
N          N       0.38731   0.73939   0.09217  -0.34868
N          N       0.10888   0.23633   0.40290  -0.35048
N          N       0.89192   0.23826   0.10680  -0.34850
N          N       0.39205   0.26201   0.09452  -0.34863
N          N       0.61267   0.26227   0.39953  -0.34918
N          N       0.88855   0.76157   0.10819  -0.34992
N          N       0.10431   0.75349   0.39352  -0.34955
N          N       0.73163   0.71307   0.66227  -0.28793
N          N       0.26249   0.70382   0.83925  -0.28873
N          N       0.23412   0.20837   0.66209  -0.28606
N          N       0.76903   0.20874   0.81184  -0.28695
N          N       0.26667   0.29078   0.83985  -0.28947
N          N       0.73664   0.29290   0.66930  -0.28906
N          N       0.76361   0.79394   0.85785  -0.29022
N          N       0.23004   0.78348   0.65325  -0.28796
N          N       0.60800   0.74044   0.91013  -0.34855
N          N       0.39074   0.74160   0.61161  -0.34734
N          N       0.10792   0.24244   0.90197  -0.35052
N          N       0.88743   0.23790   0.59964  -0.34881
N          N       0.39324   0.25894   0.59276  -0.34865
N          N       0.60839   0.26181   0.89119  -0.34916
N          N       0.88941   0.76366   0.61851  -0.34909
N          N       0.10877   0.75933   0.90751  -0.34602
