data_crystal

_audit_creation_method 'AiiDA-DDEC plugin'

_cell_length_a        37.44421
_cell_length_b        37.60684
_cell_length_c         8.40670

_cell_angle_alpha     90.04031
_cell_angle_beta     90.85119
_cell_angle_gamma     120.56801

_symmetry_space_group_name_Hall 'P 1'
_symmetry_space_group_name_H-M  'P 1'

loop_
_symmetry_equiv_pos_as_xyz
 'x,y,z'

loop_
_atom_site_label
_atom_site_type_symbol
_atom_site_fract_x
_atom_site_fract_y
_atom_site_fract_z
_atom_site_charge
H          H       0.28572   0.69208   0.19677   0.11256
H          H       0.30626   0.58928   0.19533   0.11321
H          H       0.41038   0.71385   0.19455   0.11245
H          H       0.37099   0.82044   0.06404   0.10926
H          H       0.17592   0.54482   0.06855   0.10943
H          H       0.45401   0.63104   0.06333   0.11150
H          H       0.34331   0.76225   0.21000   0.06743
H          H       0.23629   0.57601   0.20776   0.06727
H          H       0.42337   0.65820   0.20420   0.06641
H          H       0.40001   0.89582   0.07902   0.11038
H          H       0.09995   0.49941   0.07847   0.10996
H          H       0.50149   0.60369   0.07451   0.10918
H          H       0.50330   0.90929   0.35777   0.09605
H          H       0.09119   0.59098   0.35236   0.09887
H          H       0.41436   0.50211   0.35687   0.09617
H          H       0.47421   0.83327   0.34174   0.12300
H          H       0.16782   0.63718   0.34083   0.12290
H          H       0.36617   0.52958   0.34596   0.12261
H          H       0.46632   0.07192   0.33291   0.13310
H          H       0.93009   0.38698   0.23643   0.13202
H          H       0.61050   0.53341   0.33369   0.13424
H          H       0.39650   0.91776   0.34267   0.12488
H          H       0.07684   0.47463   0.33797   0.12487
H          H       0.52971   0.60649   0.34681   0.12515
H          H       0.38689   0.95706   0.27823   0.12828
H          H       0.03637   0.42578   0.27115   0.12960
H          H       0.57765   0.61631   0.26863   0.12836
H          H       0.68967   0.28264   0.20596   0.11265
H          H       0.71464   0.40780   0.20004   0.11263
H          H       0.58847   0.30621   0.21219   0.11348
H          H       0.63431   0.16615   0.35215   0.12538
H          H       0.83353   0.46506   0.37805   0.12527
H          H       0.53169   0.36804   0.35466   0.12523
H          H       0.57372   0.23548   0.22883   0.06577
H          H       0.76109   0.33921   0.20333   0.06732
H          H       0.66004   0.42264   0.21321   0.06594
H          H       0.58792   0.09003   0.36508   0.11287
H          H       0.90992   0.49501   0.38099   0.11191
H          H       0.50466   0.41622   0.36458   0.11342
H          H       0.49518   0.09977   0.09169   0.10252
H          H       0.89509   0.40151   0.04610   0.09794
H          H       0.60591   0.50217   0.07591   0.10283
H          H       0.54103   0.17542   0.08193   0.10895
H          H       0.81933   0.37187   0.04384   0.10658
H          H       0.63268   0.45423   0.06687   0.10853
H          H       0.40904   0.96059   0.46865   0.12939
H          H       0.03356   0.44484   0.46044   0.13196
H          H       0.56331   0.59554   0.46117   0.13030
H          H       0.53664   0.94072   0.09739   0.29194
H          H       0.06182   0.59575   0.08947   0.29047
H          H       0.40815   0.46907   0.08273   0.29015
H          H       0.44175   0.03068   0.46964   0.12699
H          H       0.93537   0.40721   0.42976   0.13154
H          H       0.59499   0.55858   0.47163   0.12679
H          H       0.41876   0.02685   0.28034   0.12478
H          H       0.97304   0.39629   0.35788   0.12709
H          H       0.61579   0.58189   0.28707   0.12608
H          H       0.28617   0.69375   0.70982   0.11227
H          H       0.30679   0.59096   0.70368   0.11333
H          H       0.41079   0.71557   0.70430   0.11296
H          H       0.36995   0.82042   0.56942   0.10970
H          H       0.17702   0.54818   0.56417   0.11027
H          H       0.45492   0.63203   0.57852   0.11066
H          H       0.34358   0.76368   0.72282   0.06606
H          H       0.23649   0.57772   0.72001   0.06772
H          H       0.42376   0.65955   0.71653   0.06670
H          H       0.39723   0.89555   0.58336   0.11005
H          H       0.10115   0.50188   0.57172   0.10874
H          H       0.50070   0.60268   0.58836   0.11075
H          H       0.50173   0.91190   0.86131   0.09662
H          H       0.09091   0.59019   0.86162   0.09449
H          H       0.40983   0.49991   0.85610   0.09495
H          H       0.47440   0.83608   0.84678   0.12270
H          H       0.16748   0.63689   0.85460   0.12215
H          H       0.36355   0.52943   0.84616   0.12279
H          H       0.47343   0.07628   0.85171   0.13334
H          H       0.92260   0.39303   0.82661   0.13050
H          H       0.60622   0.52894   0.83331   0.13218
H          H       0.39501   0.92121   0.84287   0.12461
H          H       0.07783   0.47318   0.82988   0.12476
H          H       0.52843   0.60478   0.84616   0.12362
H          H       0.38734   0.96160   0.77585   0.12940
H          H       0.03677   0.42542   0.75571   0.12847
H          H       0.57569   0.61298   0.76740   0.12828
H          H       0.69032   0.28397   0.71065   0.11256
H          H       0.71456   0.40887   0.70218   0.11249
H          H       0.58859   0.30676   0.70724   0.11340
H          H       0.63313   0.16824   0.87370   0.12399
H          H       0.83442   0.47116   0.84331   0.12589
H          H       0.53061   0.36660   0.85684   0.12526
H          H       0.57397   0.23590   0.71658   0.06742
H          H       0.76106   0.34036   0.72237   0.06555
H          H       0.65933   0.42314   0.71319   0.06631
H          H       0.58722   0.09184   0.88508   0.11129
H          H       0.91048   0.49950   0.85632   0.11207
H          H       0.50198   0.41350   0.86363   0.11221
H          H       0.49973   0.09965   0.57104   0.10158
H          H       0.89382   0.39412   0.58950   0.09966
H          H       0.60209   0.49999   0.57177   0.10194
H          H       0.54530   0.17557   0.56055   0.10768
H          H       0.81853   0.36612   0.57824   0.11063
H          H       0.63075   0.45365   0.56718   0.11076
H          H       0.40829   0.96440   0.96817   0.12924
H          H       0.03467   0.44156   0.95077   0.13038
H          H       0.56123   0.59288   0.96082   0.13009
H          H       0.53165   0.93826   0.59249   0.28893
H          H       0.06075   0.59558   0.60129   0.29132
H          H       0.40369   0.46636   0.59694   0.29228
H          H       0.44270   0.03253   0.97146   0.12525
H          H       0.96623   0.40689   0.95301   0.12912
H          H       0.59380   0.55854   0.96164   0.12703
H          H       0.42459   0.03612   0.78001   0.12470
H          H       0.96445   0.38809   0.75835   0.12717
H          H       0.61335   0.57713   0.77024   0.12478
C          C       0.39926   0.83962   0.13325  -0.17609
C          C       0.15767   0.55462   0.13514  -0.17388
C          C       0.44563   0.60342   0.13197  -0.17886
C          C       0.30734   0.68078   0.19449  -0.14082
C          C       0.31801   0.62238   0.19348  -0.13993
C          C       0.37706   0.69216   0.19289  -0.14112
C          C       0.35020   0.70811   0.19416   0.06338
C          C       0.29094   0.63772   0.19474   0.06132
C          C       0.36132   0.64956   0.19307   0.06114
C          C       0.36652   0.75266   0.20129   0.07260
C          C       0.24616   0.60900   0.20194   0.07234
C          C       0.39026   0.63430   0.19930   0.07426
C          C       0.42002   0.82142   0.20712   0.19853
C          C       0.17741   0.59392   0.20856   0.19646
C          C       0.40695   0.58250   0.20724   0.19688
C          C       0.41571   0.88215   0.14119  -0.12172
C          C       0.11477   0.52910   0.13979  -0.12292
C          C       0.47241   0.58790   0.13781  -0.12081
C          C       0.45325   0.90820   0.22328   0.08235
C          C       0.08982   0.54150   0.21770   0.08323
C          C       0.46181   0.55118   0.21874   0.07885
C          C       0.47413   0.88978   0.29417  -0.14343
C          C       0.10980   0.58096   0.28959  -0.14365
C          C       0.42295   0.53040   0.29271  -0.14035
C          C       0.45814   0.84735   0.28546  -0.15663
C          C       0.15261   0.60689   0.28393  -0.15663
C          C       0.39587   0.54546   0.28658  -0.15626
C          C       0.47204   0.95365   0.22781  -0.08868
C          C       0.04398   0.51584   0.21683  -0.08951
C          C       0.48822   0.53228   0.21956  -0.08541
C          C       0.51301   0.97893   0.17723   0.09446
C          C       0.02062   0.53337   0.16420   0.09311
C          C       0.47076   0.49133   0.16546   0.09352
C          C       0.47222   0.01888   0.27856   0.04819
C          C       0.97656   0.45197   0.26246   0.05163
C          C       0.55242   0.52996   0.27373   0.04771
C          C       0.40880   0.95108   0.34460  -0.41935
C          C       0.04321   0.45387   0.33696  -0.42240
C          C       0.55106   0.59473   0.34060  -0.41801
C          C       0.60363   0.15126   0.29639  -0.14808
C          C       0.84741   0.45137   0.30607  -0.14845
C          C       0.54777   0.39761   0.29471  -0.14577
C          C       0.67907   0.30477   0.20429  -0.14017
C          C       0.69217   0.37480   0.20095  -0.13931
C          C       0.62154   0.31716   0.20783  -0.13926
C          C       0.63601   0.28942   0.20825   0.05990
C          C       0.70723   0.34725   0.20173   0.06115
C          C       0.64961   0.36012   0.20390   0.06108
C          C       0.60663   0.24493   0.21718   0.07579
C          C       0.75185   0.36272   0.20542   0.07241
C          C       0.63542   0.38989   0.20823   0.07376
C          C       0.59058   0.17612   0.22030   0.20263
C          C       0.82114   0.41590   0.21469   0.19798
C          C       0.58446   0.40812   0.21421   0.19928
C          C       0.57769   0.10870   0.30263  -0.09773
C          C       0.89015   0.46802   0.30714  -0.10584
C          C       0.53279   0.42463   0.29981  -0.10128
C          C       0.53799   0.08929   0.23001   0.06939
C          C       0.90803   0.45004   0.21507   0.07198
C          C       0.55370   0.46299   0.22276   0.06883
C          C       0.52505   0.11416   0.15350  -0.12907
C          C       0.88177   0.41477   0.12332  -0.12709
C          C       0.59030   0.47347   0.14184  -0.12878
C          C       0.55082   0.15693   0.14834  -0.18476
C          C       0.83893   0.39782   0.12243  -0.18259
C          C       0.60556   0.44652   0.13715  -0.18489
C          C       0.51334   0.04358   0.22734  -0.02729
C          C       0.95386   0.47041   0.21046  -0.02678
C          C       0.53416   0.48879   0.21954  -0.02861
C          C       0.53319   0.02247   0.17353   0.09230
C          C       0.97677   0.51157   0.15833   0.09198
C          C       0.49273   0.46997   0.16259   0.09506
C          C       0.45194   0.97472   0.27853   0.06905
C          C       0.02091   0.47433   0.26636   0.06689
C          C       0.52984   0.55139   0.27315   0.06581
C          C       0.44866   0.03829   0.34318  -0.41547
C          C       0.95289   0.40831   0.32436  -0.42007
C          C       0.59577   0.55205   0.34437  -0.41665
C          C       0.57551   0.00660   0.07199   0.11069
C          C       0.99613   0.57134   0.06222   0.11019
C          C       0.43293   0.42889   0.05852   0.10714
C          C       0.60894   0.00291   0.49703   0.66036
C          C       0.99393   0.60687   0.50874   0.66101
C          C       0.39162   0.38935   0.48760   0.66057
C          C       0.39818   0.84023   0.63784  -0.17709
C          C       0.15843   0.55679   0.63478  -0.17754
C          C       0.44540   0.60372   0.64405  -0.17525
C          C       0.30773   0.68240   0.70623  -0.13990
C          C       0.31842   0.62404   0.70303  -0.13966
C          C       0.37749   0.69382   0.70325  -0.13963
C          C       0.35058   0.70969   0.70525   0.06049
C          C       0.29133   0.63935   0.70507   0.06038
C          C       0.36175   0.65123   0.70320   0.06124
C          C       0.36681   0.75418   0.71187   0.07423
C          C       0.24652   0.61070   0.71159   0.07422
C          C       0.39058   0.63583   0.70965   0.07292
C          C       0.41974   0.82293   0.71200   0.19826
C          C       0.17776   0.59530   0.71407   0.19862
C          C       0.40621   0.58311   0.71571   0.19678
C          C       0.41368   0.88262   0.64506  -0.12400
C          C       0.11555   0.53077   0.63839  -0.12136
C          C       0.47122   0.58709   0.64921  -0.12159
C          C       0.45118   0.90931   0.72575   0.08169
C          C       0.09022   0.54191   0.72083   0.08012
C          C       0.45918   0.54943   0.72567   0.08185
C          C       0.47277   0.89172   0.79763  -0.14156
C          C       0.10983   0.58082   0.79737  -0.14180
C          C       0.41981   0.52898   0.79578  -0.14429
C          C       0.45776   0.84949   0.78978  -0.15644
C          C       0.15259   0.60716   0.79342  -0.15673
C          C       0.39370   0.54517   0.79022  -0.15415
C          C       0.47021   0.95480   0.72735  -0.08721
C          C       0.04438   0.51567   0.72101  -0.08572
C          C       0.48479   0.52969   0.72519  -0.08837
C          C       0.51106   0.97883   0.67417   0.09407
C          C       0.02030   0.53283   0.67271   0.09105
C          C       0.46675   0.48853   0.67193   0.09233
C          C       0.47374   0.02134   0.78098   0.04595
C          C       0.97735   0.45118   0.76862   0.05061
C          C       0.54910   0.52706   0.77165   0.04806
C          C       0.40830   0.95471   0.84462  -0.41766
C          C       0.04416   0.45267   0.82889  -0.41887
C          C       0.54900   0.59214   0.84029  -0.41819
C          C       0.60376   0.15282   0.80821  -0.14777
C          C       0.84792   0.45462   0.78831  -0.14666
C          C       0.54607   0.39600   0.79546  -0.14538
C          C       0.67946   0.30590   0.70717  -0.14049
C          C       0.69220   0.37583   0.70246  -0.13981
C          C       0.62169   0.31786   0.70516  -0.13964
C          C       0.63635   0.29030   0.70701   0.06123
C          C       0.70740   0.34840   0.70519   0.06116
C          C       0.64959   0.36089   0.70347   0.06169
C          C       0.60712   0.24573   0.71329   0.07301
C          C       0.75193   0.36387   0.71179   0.07515
C          C       0.63497   0.39028   0.70890   0.07365
C          C       0.59192   0.17719   0.72087   0.19834
C          C       0.82122   0.41640   0.71386   0.20260
C          C       0.58300   0.40721   0.71541   0.19957
C          C       0.57812   0.11017   0.81370  -0.10307
C          C       0.89047   0.47043   0.79444  -0.09594
C          C       0.53013   0.42224   0.79857  -0.10271
C          C       0.54002   0.09043   0.72957   0.07013
C          C       0.90805   0.44902   0.72377   0.06582
C          C       0.55026   0.46039   0.71973   0.06871
C          C       0.52838   0.11470   0.64103  -0.12762
C          C       0.88118   0.41080   0.64946  -0.12785
C          C       0.58710   0.47152   0.63927  -0.12614
C          C       0.55388   0.15750   0.63599  -0.18375
C          C       0.83847   0.39464   0.64380  -0.18589
C          C       0.60339   0.44544   0.63685  -0.18661
C          C       0.51482   0.04472   0.72796  -0.02668
C          C       0.95384   0.46915   0.72104  -0.03173
C          C       0.53039   0.48586   0.71767  -0.02609
C          C       0.53323   0.02245   0.67221   0.09477
C          C       0.97646   0.51067   0.67051   0.09558
C          C       0.48867   0.46715   0.66411   0.09352
C          C       0.45164   0.97708   0.78007   0.06733
C          C       0.02181   0.47403   0.76845   0.06625
C          C       0.52679   0.54869   0.77426   0.06874
C          C       0.45253   0.04278   0.84907  -0.41493
C          C       0.95639   0.40750   0.82950  -0.41591
C          C       0.59297   0.54900   0.83718  -0.41613
C          C       0.57312   0.00357   0.56998   0.10753
C          C       0.99488   0.57059   0.57730   0.11000
C          C       0.42819   0.42608   0.56419   0.10814
C          C       0.61174   0.00843   0.99118   0.65991
C          C       0.99626   0.60829   0.99572   0.66218
C          C       0.39624   0.39168   0.98648   0.66019
N          N       0.54103   0.96945   0.11232  -0.29961
N          N       0.03236   0.57197   0.10264  -0.29833
N          N       0.43221   0.46412   0.09833  -0.29610
N          N       0.40584   0.77902   0.20275  -0.28119
N          N       0.22019   0.62194   0.20576  -0.28213
N          N       0.37781   0.59542   0.20359  -0.28242
N          N       0.57198   0.03878   0.10581  -0.31840
N          N       0.96241   0.53606   0.09338  -0.31791
N          N       0.46828   0.43105   0.09448  -0.32019
N          N       0.61905   0.21863   0.21580  -0.27953
N          N       0.77855   0.40169   0.21557  -0.27444
N          N       0.59663   0.37849   0.21125  -0.27860
N          N       0.53733   0.96745   0.60723  -0.29819
N          N       0.03144   0.57134   0.61221  -0.29650
N          N       0.42778   0.46133   0.60749  -0.29803
N          N       0.40606   0.78065   0.70948  -0.28003
N          N       0.22050   0.62358   0.71243  -0.28033
N          N       0.37774   0.59684   0.71233  -0.28159
N          N       0.57201   0.03706   0.60591  -0.32436
N          N       0.96156   0.53505   0.60921  -0.32296
N          N       0.46390   0.42844   0.59483  -0.32121
N          N       0.62000   0.21982   0.71885  -0.27581
N          N       0.77881   0.40285   0.71014  -0.27991
N          N       0.59605   0.37828   0.71335  -0.27909
F          F       0.62503   0.02967   0.37544  -0.18353
F          F       0.96696   0.59546   0.38402  -0.18529
F          F       0.40448   0.36961   0.39146  -0.17539
F          F       0.59554   0.96348   0.43953  -0.23495
F          F       0.03299   0.63546   0.45603  -0.23251
F          F       0.36822   0.40145   0.39935  -0.23655
F          F       0.63718   0.00174   0.08901  -0.22307
F          F       0.00338   0.63713   0.11091  -0.22388
F          F       0.37301   0.36272   0.09605  -0.21352
F          F       0.63528   0.04498   0.91964  -0.17230
F          F       0.96010   0.59738   0.92047  -0.17187
F          F       0.40797   0.37315   0.87914  -0.17738
F          F       0.59707   0.97706   0.87894  -0.23277
F          F       0.02798   0.62848   0.88844  -0.23748
F          F       0.37009   0.40283   0.91207  -0.23651
F          F       0.64076   0.01220   0.60068  -0.21048
F          F       0.98282   0.62672   0.61535  -0.21161
F          F       0.36460   0.36113   0.59256  -0.22005

