data_crystal

_audit_creation_method 'AiiDA-DDEC plugin'

_cell_length_a        34.89620
_cell_length_b        34.96729
_cell_length_c         8.04276

_cell_angle_alpha     90.73780
_cell_angle_beta     90.00046
_cell_angle_gamma     120.32391

_symmetry_space_group_name_Hall 'P 1'
_symmetry_space_group_name_H-M  'P 1'

loop_
_symmetry_equiv_pos_as_xyz
 'x,y,z'

loop_
_atom_site_label
_atom_site_type_symbol
_atom_site_fract_x
_atom_site_fract_y
_atom_site_fract_z
_atom_site_charge
H          H       0.43815   0.76021   0.45303   0.11179
H          H       0.24269   0.68021   0.46513   0.11155
H          H       0.32255   0.56483   0.46183   0.11173
H          H       0.56424   0.24604   0.04401   0.11104
H          H       0.75906   0.32258   0.03070   0.11171
H          H       0.68182   0.44047   0.03484   0.11160
H          H       0.47900   0.84002   0.38338   0.12948
H          H       0.16186   0.64148   0.40542   0.13054
H          H       0.36102   0.52306   0.39793   0.13026
H          H       0.52119   0.16637   0.11386   0.12900
H          H       0.83975   0.36032   0.09227   0.13058
H          H       0.64395   0.48258   0.10263   0.13024
H          H       0.38813   0.85709   0.16405   0.13920
H          H       0.14065   0.52960   0.18109   0.13811
H          H       0.46829   0.60833   0.16926   0.13615
H          H       0.61297   0.14015   0.32873   0.14201
H          H       0.85775   0.47026   0.30864   0.13767
H          H       0.52905   0.38584   0.31093   0.13694
H          H       0.34751   0.77840   0.24032   0.11363
H          H       0.22054   0.56719   0.24871   0.11204
H          H       0.43114   0.65000   0.24724   0.11297
H          H       0.65334   0.21890   0.25266   0.11331
H          H       0.77775   0.43088   0.24037   0.10998
H          H       0.56730   0.34470   0.23682   0.11258
H          H       0.57962   0.53041   0.15990   0.12251
H          H       0.46742   0.04630   0.12734   0.12020
H          H       0.95238   0.42401   0.14228   0.12053
H          H       0.42482   0.47513   0.34857   0.12141
H          H       0.52786   0.95657   0.36401   0.12035
H          H       0.04912   0.57707   0.36427   0.11948
H          H       0.56012   0.58079   0.31558   0.12695
H          H       0.41741   0.97574   0.27599   0.12838
H          H       0.02193   0.44349   0.30074   0.12498
H          H       0.44409   0.42485   0.19124   0.12535
H          H       0.57775   0.02665   0.21305   0.12570
H          H       0.97964   0.55756   0.20573   0.12859
H          H       0.30006   0.71352   0.12534   0.10286
H          H       0.28469   0.58374   0.12114   0.10310
H          H       0.41515   0.69895   0.11810   0.10388
H          H       0.70083   0.28481   0.37124   0.10282
H          H       0.71321   0.41336   0.36453   0.10333
H          H       0.58409   0.29653   0.37239   0.10370
H          H       0.43776   0.75520   0.95099   0.11021
H          H       0.24273   0.67960   0.96197   0.11161
H          H       0.31824   0.56187   0.94386   0.11017
H          H       0.56267   0.24143   0.54194   0.11171
H          H       0.75793   0.32063   0.53542   0.11101
H          H       0.67863   0.43367   0.54482   0.11041
H          H       0.47979   0.83495   0.87998   0.12883
H          H       0.16210   0.64254   0.90018   0.13076
H          H       0.35485   0.51877   0.87157   0.13013
H          H       0.52077   0.16161   0.61187   0.12998
H          H       0.83865   0.35953   0.59809   0.12998
H          H       0.64065   0.47566   0.61549   0.13003
H          H       0.38630   0.85999   0.66934   0.13736
H          H       0.14347   0.52936   0.68358   0.13894
H          H       0.47476   0.61831   0.68058   0.14434
H          H       0.61176   0.14277   0.82884   0.14152
H          H       0.85999   0.47325   0.81448   0.14144
H          H       0.52864   0.38698   0.82763   0.14282
H          H       0.34687   0.78111   0.74569   0.11028
H          H       0.22356   0.56830   0.74873   0.10973
H          H       0.43616   0.65923   0.74876   0.10935
H          H       0.65350   0.22150   0.75399   0.11203
H          H       0.78003   0.43502   0.74641   0.11122
H          H       0.56694   0.34635   0.75270   0.11510
H          H       0.57539   0.52485   0.65153   0.12012
H          H       0.47066   0.04390   0.63428   0.12034
H          H       0.95391   0.42541   0.62330   0.11984
H          H       0.41968   0.46692   0.83425   0.12299
H          H       0.53191   0.95452   0.86755   0.12167
H          H       0.04562   0.57690   0.86679   0.12138
H          H       0.55409   0.57464   0.80110   0.12811
H          H       0.42121   0.97373   0.78585   0.12847
H          H       0.02316   0.44552   0.78506   0.12852
H          H       0.44113   0.41706   0.68566   0.12757
H          H       0.58145   0.02493   0.71761   0.12803
H          H       0.97634   0.55679   0.70531   0.12797
H          H       0.29983   0.71535   0.62611   0.10305
H          H       0.28852   0.58722   0.62807   0.10267
H          H       0.41719   0.70482   0.62253   0.10278
H          H       0.70195   0.28817   0.86968   0.10308
H          H       0.71513   0.41707   0.87039   0.10235
H          H       0.58563   0.30049   0.87551   0.10285
C          C       0.42748   0.77750   0.00248  -0.12138
C          C       0.22046   0.64742   0.01517  -0.12250
C          C       0.35051   0.57149  -0.00239  -0.12066
C          C       0.57312   0.21925   0.49059  -0.12183
C          C       0.77970   0.35272   0.48079  -0.12161
C          C       0.64650   0.42382   0.48918  -0.12212
C          C       0.45028   0.82669   0.46432  -0.19048
C          C       0.17588   0.62624   0.48262  -0.19254
C          C       0.37669   0.55259   0.47695  -0.19105
C          C       0.54987   0.17885   0.03299  -0.18956
C          C       0.82623   0.37590   0.01426  -0.19190
C          C       0.62765   0.45283   0.02504  -0.19311
C          C       0.43615   0.85036   0.01532   0.24862
C          C       0.14695   0.58384   0.03464   0.24478
C          C       0.41370   0.56134   0.01377   0.24631
C          C       0.56483   0.14660   0.47728   0.24638
C          C       0.85256   0.41710   0.45886   0.24577
C          C       0.58262   0.43263   0.46993   0.24494
C          C       0.39906   0.83497   0.11751  -0.19528
C          C       0.16290   0.56236   0.13361  -0.19173
C          C       0.43551   0.59807   0.12022  -0.18999
C          C       0.60198   0.16219   0.37552  -0.19584
C          C       0.83594   0.43763   0.35815  -0.19041
C          C       0.56160   0.39608   0.36240  -0.18852
C          C       0.37596   0.79019   0.15841  -0.10949
C          C       0.20827   0.58377   0.16973  -0.10830
C          C       0.41447   0.62185   0.16176  -0.10977
C          C       0.62490   0.20697   0.33467  -0.11149
C          C       0.79054   0.41525   0.32183  -0.10711
C          C       0.58332   0.37289   0.32233  -0.11217
C          C       0.38877   0.76036   0.09869   0.04861
C          C       0.23806   0.62600   0.10820   0.04944
C          C       0.37231   0.60992   0.09802   0.04881
C          C       0.61184   0.23657   0.39451   0.04930
C          C       0.76143   0.37303   0.38509   0.04850
C          C       0.62545   0.38553   0.38798   0.04959
C          C       0.36100   0.71209   0.12468   0.08118
C          C       0.28666   0.64630   0.12852   0.07901
C          C       0.35229   0.63807   0.12418   0.07958
C          C       0.63914   0.28482   0.36793   0.07975
C          C       0.71278   0.35154   0.36333   0.07956
C          C       0.64624   0.35807   0.36405   0.08110
C          C       0.31462   0.69243   0.12950  -0.18492
C          C       0.30606   0.61956   0.12766  -0.18664
C          C       0.37934   0.68443   0.12540  -0.18564
C          C       0.68561   0.30529   0.36462  -0.18628
C          C       0.69252   0.37745   0.36062  -0.18415
C          C       0.61996   0.31169   0.36505  -0.18771
C          C       0.48223   0.56326   0.42831   0.50321
C          C       0.43811   0.92056   0.41440   0.50451
C          C       0.08060   0.52068   0.43245   0.50406
C          C       0.52171   0.44260   0.07501   0.50523
C          C       0.55774   0.08184   0.07573   0.50463
C          C       0.92135   0.48079   0.07253   0.50593
C          C       0.49151   0.53102   0.34140  -0.03812
C          C       0.46964   0.96218   0.32906  -0.03838
C          C       0.03955   0.51127   0.34196  -0.03861
C          C       0.51277   0.47462   0.16538  -0.03876
C          C       0.52567   0.04054   0.16148  -0.03891
C          C       0.96228   0.48994   0.16320  -0.03872
C          C       0.45853   0.48698   0.30704  -0.09538
C          C       0.51486   0.97619   0.31126  -0.09670
C          C       0.02793   0.54375   0.31517  -0.09400
C          C       0.54587   0.51857   0.20118  -0.09817
C          C       0.48045   0.02662   0.17957  -0.09438
C          C       0.97378   0.45739   0.19054  -0.09519
C          C       0.46916   0.45901   0.21987  -0.09327
C          C       0.54262   0.01510   0.22795  -0.09256
C          C       0.98944   0.53304   0.22713  -0.09485
C          C       0.53517   0.54656   0.28765  -0.09223
C          C       0.45263   0.98754   0.26208  -0.09397
C          C       0.01228   0.46811   0.27867  -0.09044
C          C       0.42727   0.78201   0.50489  -0.12288
C          C       0.22115   0.64777   0.51773  -0.12148
C          C       0.35532   0.57612   0.51433  -0.12231
C          C       0.57409   0.22345   0.99219  -0.12243
C          C       0.78103   0.35490   0.97803  -0.12177
C          C       0.64872   0.42912   0.98547  -0.12187
C          C       0.45114   0.82211   0.96112  -0.19144
C          C       0.17528   0.62674   0.97873  -0.19258
C          C       0.37085   0.54722   0.95563  -0.19498
C          C       0.54958   0.17462   0.53153  -0.19106
C          C       0.82489   0.37438   0.51754  -0.19363
C          C       0.62539   0.44737   0.53036  -0.19223
C          C       0.43461   0.85427   0.51982   0.24719
C          C       0.14834   0.58323   0.53871   0.24635
C          C       0.42006   0.56857   0.53320   0.24604
C          C       0.56427   0.15018   0.97805   0.24774
C          C       0.85420   0.41893   0.95908   0.24580
C          C       0.58396   0.43683   0.97222   0.24714
C          C       0.39750   0.83816   0.62191  -0.19126
C          C       0.16518   0.56222   0.63570  -0.19049
C          C       0.44165   0.60680   0.63230  -0.19337
C          C       0.60135   0.16525   0.87605  -0.19676
C          C       0.83793   0.44035   0.86145  -0.19212
C          C       0.56196   0.39856   0.87348  -0.19611
C          C       0.37511   0.79336   0.66253  -0.10851
C          C       0.21067   0.58445   0.67043  -0.10773
C          C       0.41960   0.62988   0.66898  -0.10811
C          C       0.62509   0.21009   0.83590  -0.10797
C          C       0.79251   0.41858   0.82523  -0.10855
C          C       0.58381   0.37546   0.83369  -0.10903
C          C       0.38864   0.76419   0.60165   0.05024
C          C       0.23967   0.62701   0.60948   0.04966
C          C       0.37669   0.61579   0.60800   0.05002
C          C       0.61275   0.24026   0.89588   0.04909
C          C       0.76303   0.37611   0.88588   0.04942
C          C       0.62690   0.38936   0.89245   0.04922
C          C       0.36174   0.71585   0.62744   0.07940
C          C       0.28838   0.64872   0.63097   0.08030
C          C       0.35537   0.64287   0.63016   0.07997
C          C       0.64046   0.28854   0.86965   0.08035
C          C       0.71431   0.35508   0.86533   0.08015
C          C       0.64788   0.36202   0.86839   0.07925
C          C       0.31524   0.69503   0.63123  -0.18532
C          C       0.30902   0.62315   0.63271  -0.18474
C          C       0.38128   0.68930   0.62961  -0.18644
C          C       0.68690   0.30881   0.86501  -0.18459
C          C       0.69421   0.38119   0.86503  -0.18658
C          C       0.62150   0.31562   0.86825  -0.18484
C          C       0.47577   0.55572   0.91138   0.50606
C          C       0.44179   0.91856   0.92060   0.50326
C          C       0.07905   0.52147   0.92810   0.50437
C          C       0.51975   0.43636   0.57554   0.50421
C          C       0.56041   0.07960   0.57875   0.50462
C          C       0.92012   0.48026   0.56345   0.50392
C          C       0.48588   0.52378   0.82711  -0.03893
C          C       0.47350   0.96004   0.83505  -0.03855
C          C       0.03817   0.51206   0.83635  -0.03801
C          C       0.50926   0.46803   0.65940  -0.03788
C          C       0.52904   0.03835   0.66645  -0.04014
C          C       0.96118   0.49013   0.65470  -0.03922
C          C       0.45364   0.47934   0.79442  -0.09904
C          C       0.51870   0.97408   0.81580  -0.09552
C          C       0.02546   0.54389   0.81329  -0.09729
C          C       0.54146   0.51244   0.69174  -0.09612
C          C       0.48385   0.02430   0.68578  -0.09539
C          C       0.97399   0.45837   0.67724  -0.09385
C          C       0.46536   0.45165   0.71168  -0.09234
C          C       0.54625   0.01307   0.73249  -0.09374
C          C       0.98710   0.53287   0.72362  -0.09361
C          C       0.52977   0.54009   0.77496  -0.09598
C          C       0.45633   0.98539   0.76960  -0.09652
C          C       0.01231   0.46938   0.76699  -0.09587
O          O       0.43181   0.53550   0.95858  -0.25909
O          O       0.46145   0.89404   0.95932  -0.25620
O          O       0.10252   0.56509   0.98270  -0.25927
O          O       0.56345   0.45750   0.52450  -0.25995
O          O       0.53987   0.10289   0.53316  -0.25788
O          O       0.89716   0.43659   0.50910  -0.26092
O          O       0.50909   0.60260   0.44610  -0.43376
O          O       0.39872   0.90743   0.43320  -0.43489
O          O       0.09289   0.49398   0.45015  -0.43423
O          O       0.49415   0.40368   0.05086  -0.43495
O          O       0.59638   0.09283   0.05031  -0.43761
O          O       0.90889   0.50748   0.05843  -0.43424
O          O       0.43886   0.54298   0.48300  -0.26155
O          O       0.45921   0.89825   0.46629  -0.26059
O          O       0.10363   0.56406   0.49025  -0.26038
O          O       0.56545   0.46244   0.02530  -0.25942
O          O       0.53842   0.10644   0.03294  -0.25676
O          O       0.89876   0.43789   0.00981  -0.26203
O          O       0.50265   0.59493   0.93296  -0.43558
O          O       0.40325   0.90737   0.94926  -0.43603
O          O       0.09081   0.49445   0.94923  -0.43455
O          O       0.49359   0.39686   0.55771  -0.43473
O          O       0.59926   0.09157   0.55303  -0.43615
O          O       0.90768   0.50678   0.54263  -0.43480

