data_Xe_in_14010N2_ddec_PM
_symmetry_space_group_name_H-M    'P1'
_cell_length_a    27.464000
_cell_length_b    22.914600
_cell_length_c    8.362450
_cell_angle_alpha    90.579300
_cell_angle_beta    90.401600
_cell_angle_gamma    90.062100
_symmetry_Int_Tables_number 1

loop_
_symmetry_equiv_pos_as_xyz
'x,y,z'

loop_
_atom_site_label
_atom_site_type_symbol
_atom_site_fract_x
_atom_site_fract_y
_atom_site_fract_z
Xe1    Xe    0.999805    0.195408    0.229251
