data_Xe_in_21311N3_ddec_PM
_symmetry_space_group_name_H-M    'P1'
_cell_length_a    46.686000
_cell_length_b    43.538430
_cell_length_c    7.923770
_cell_angle_alpha    90.535030
_cell_angle_beta    94.396280
_cell_angle_gamma    89.753190
_symmetry_Int_Tables_number 1

loop_
_symmetry_equiv_pos_as_xyz
'x,y,z'

loop_
_atom_site_label
_atom_site_type_symbol
_atom_site_fract_x
_atom_site_fract_y
_atom_site_fract_z
Xe1    Xe    0.074559    0.271713    0.861139
