data_crystal

_audit_creation_method 'AiiDA-DDEC plugin'

_cell_length_a        46.68600
_cell_length_b        43.53843
_cell_length_c         7.92377

_cell_angle_alpha     90.53503
_cell_angle_beta     94.39628
_cell_angle_gamma     89.75319

_symmetry_space_group_name_Hall 'P 1'
_symmetry_space_group_name_H-M  'P 1'

loop_
_symmetry_equiv_pos_as_xyz
 'x,y,z'

loop_
_atom_site_label
_atom_site_type_symbol
_atom_site_fract_x
_atom_site_fract_y
_atom_site_fract_z
_atom_site_charge
H          H       0.56399   0.97519   0.24485   0.10756
H          H       0.43941   0.97410   0.74425   0.10491
H          H       0.06294   0.47450   0.24905   0.10570
H          H       0.93775   0.47470   0.75261   0.10448
H          H       0.43869   0.03012   0.74750   0.10303
H          H       0.56342   0.03136   0.24712   0.10350
H          H       0.93836   0.53070   0.74899   0.10347
H          H       0.06364   0.53046   0.24416   0.10377
H          H       0.52804   0.88616   0.25918   0.09904
H          H       0.47649   0.88143   0.76598   0.09609
H          H       0.02389   0.38358   0.25325   0.09837
H          H       0.97364   0.38286   0.76613   0.09710
H          H       0.47541   0.12101   0.74869   0.09811
H          H       0.52537   0.12069   0.26747   0.09902
H          H       0.97659   0.62096   0.74076   0.09767
H          H       0.02629   0.62036   0.25707   0.09820
H          H       0.56955   0.85436   0.34947   0.10672
H          H       0.43527   0.84923   0.67329   0.10742
H          H       0.06453   0.35004   0.34113   0.10774
H          H       0.93195   0.35104   0.67749   0.10686
H          H       0.43408   0.15298   0.65350   0.10716
H          H       0.56672   0.15275   0.36192   0.10599
H          H       0.93561   0.65353   0.64717   0.10633
H          H       0.06758   0.65253   0.35014   0.10577
H          H       0.62458   0.91494   0.09726   0.12280
H          H       0.37820   0.91634   0.86691   0.12241
H          H       0.12209   0.41218   0.12096   0.12242
H          H       0.87611   0.41772   0.88658   0.12255
H          H       0.37748   0.08966   0.87325   0.12250
H          H       0.62272   0.09081   0.11713   0.12239
H          H       0.87846   0.59116   0.86958   0.12294
H          H       0.12376   0.58993   0.11088   0.12244
H          H       0.58240   0.94755   0.00831   0.10593
H          H       0.41998   0.94867   0.96380   0.10849
H          H       0.08093   0.44593   0.02969   0.10774
H          H       0.91840   0.44970   0.97863   0.10782
H          H       0.41943   0.05765   0.97359   0.10936
H          H       0.58069   0.05901   0.01668   0.10845
H          H       0.92009   0.55882   0.97048   0.10944
H          H       0.08173   0.55787   0.01295   0.10805
H          H       0.67824   0.15600   0.30233   0.11462
H          H       0.32251   0.15546   0.69768   0.11526
H          H       0.17858   0.65747   0.28662   0.11440
H          H       0.82399   0.65851   0.69288   0.11500
H          H       0.32335   0.84852   0.70279   0.11377
H          H       0.68136   0.84909   0.28094   0.11397
H          H       0.82098   0.34834   0.72047   0.11345
H          H       0.17607   0.34562   0.29565   0.11325
H          H       0.72111   0.18657   0.40743   0.11929
H          H       0.27955   0.18648   0.59782   0.11802
H          H       0.22084   0.68925   0.38751   0.12048
H          H       0.78186   0.69043   0.58900   0.11793
H          H       0.28102   0.81614   0.61040   0.11981
H          H       0.72371   0.81755   0.38572   0.11892
H          H       0.77931   0.31494   0.62689   0.12160
H          H       0.21832   0.31292   0.38673   0.12102
H          H       0.66770   0.24232   0.70692   0.11161
H          H       0.33269   0.24166   0.30146   0.10882
H          H       0.16679   0.74412   0.68739   0.11152
H          H       0.83636   0.74312   0.28885   0.10926
H          H       0.33444   0.76016   0.31248   0.10938
H          H       0.66815   0.75945   0.64959   0.10836
H          H       0.83421   0.26015   0.33171   0.10994
H          H       0.16437   0.25762   0.67793   0.11062
H          H       0.62506   0.21182   0.60279   0.10598
H          H       0.37531   0.21092   0.40102   0.10750
H          H       0.12469   0.71247   0.58699   0.10684
H          H       0.87830   0.71160   0.39247   0.10612
H          H       0.37640   0.79254   0.40197   0.10616
H          H       0.62615   0.79071   0.54539   0.10217
H          H       0.87545   0.29351   0.42288   0.10763
H          H       0.12262   0.29033   0.58894   0.10454
H          H       0.60472   0.16835   0.47294   0.05929
H          H       0.39579   0.16689   0.52797   0.06013
H          H       0.10539   0.66756   0.46470   0.06056
H          H       0.89776   0.66793   0.52284   0.06125
H          H       0.39645   0.83770   0.52522   0.06375
H          H       0.60611   0.83360   0.42007   0.06091
H          H       0.89423   0.33888   0.54367   0.06212
H          H       0.10302   0.33579   0.47072   0.06179
H          H       0.56261   0.96844   0.75084   0.10355
H          H       0.43836   0.96834   0.24719   0.10543
H          H       0.06204   0.46945   0.75409   0.10536
H          H       0.93754   0.46986   0.25256   0.10464
H          H       0.43828   0.02459   0.24844   0.10731
H          H       0.56314   0.02452   0.74693   0.10701
H          H       0.93820   0.52604   0.24960   0.10709
H          H       0.06297   0.52549   0.74810   0.10588
H          H       0.52408   0.87846   0.76177   0.09589
H          H       0.47271   0.88026   0.22406   0.09967
H          H       0.02488   0.38002   0.77067   0.09748
H          H       0.97189   0.38060   0.23966   0.09931
H          H       0.47308   0.11453   0.25180   0.09798
H          H       0.52659   0.11489   0.75449   0.09722
H          H       0.97447   0.61546   0.24404   0.09902
H          H       0.02736   0.61657   0.74462   0.09757
H          H       0.56575   0.84686   0.86338   0.10792
H          H       0.42910   0.85193   0.11967   0.10715
H          H       0.06739   0.34953   0.86929   0.10729
H          H       0.92849   0.35162   0.13858   0.10756
H          H       0.43010   0.14442   0.15614   0.10886
H          H       0.56896   0.14576   0.85019   0.10884
H          H       0.93176   0.64583   0.14677   0.10928
H          H       0.06998   0.64733   0.83760   0.10857
H          H       0.62185   0.90839   0.62670   0.12247
H          H       0.37741   0.91409   0.39274   0.12287
H          H       0.12144   0.41101   0.61790   0.12172
H          H       0.87635   0.41502   0.40019   0.11989
H          H       0.37722   0.08089   0.40269   0.12169
H          H       0.62308   0.08264   0.60031   0.12093
H          H       0.87813   0.58349   0.39687   0.12246
H          H       0.12389   0.58205   0.60241   0.12140
H          H       0.57971   0.94025   0.52343   0.10926
H          H       0.42148   0.94281   0.49774   0.10504
H          H       0.07843   0.44164   0.51536   0.10658
H          H       0.92016   0.44453   0.50068   0.10673
H          H       0.42062   0.05007   0.49500   0.10606
H          H       0.58033   0.05079   0.50871   0.10731
H          H       0.92128   0.55250   0.49236   0.10560
H          H       0.08091   0.55062   0.51094   0.10752
H          H       0.67765   0.13313   0.79352   0.11725
H          H       0.32102   0.13214   0.21041   0.11586
H          H       0.17846   0.63491   0.78243   0.11529
H          H       0.82298   0.63412   0.20108   0.11642
H          H       0.32130   0.86656   0.19455   0.11609
H          H       0.67434   0.86239   0.82602   0.11632
H          H       0.82025   0.36568   0.21237   0.11604
H          H       0.17600   0.36321   0.81184   0.11438
H          H       0.72129   0.16577   0.78010   0.11084
H          H       0.27781   0.16587   0.22478   0.11115
H          H       0.22141   0.66835   0.76303   0.11232
H          H       0.77982   0.66805   0.21804   0.11193
H          H       0.27814   0.83389   0.22858   0.11264
H          H       0.71929   0.83280   0.78371   0.11223
H          H       0.77750   0.33261   0.24788   0.11191
H          H       0.21966   0.33116   0.77453   0.11385
H          H       0.68291   0.23549   0.07837   0.12038
H          H       0.31728   0.23424   0.93227   0.12083
H          H       0.18238   0.73817   0.05732   0.12067
H          H       0.81892   0.73619   0.92233   0.12078
H          H       0.31475   0.76169   0.93933   0.12033
H          H       0.68477   0.75471   0.02530   0.11907
H          H       0.81432   0.26087   0.95667   0.11842
H          H       0.18383   0.25796   0.04975   0.12037
H          H       0.63981   0.20261   0.09497   0.10652
H          H       0.36012   0.20032   0.91565   0.10653
H          H       0.13982   0.70462   0.07898   0.10648
H          H       0.86190   0.70243   0.90599   0.10689
H          H       0.35746   0.79441   0.90382   0.10936
H          H       0.64021   0.78427   0.06877   0.10565
H          H       0.85665   0.29396   0.91927   0.10771
H          H       0.14052   0.29005   0.08925   0.11031
H          H       0.61005   0.15834   0.97898   0.06659
H          H       0.38930   0.15660   0.03114   0.06709
H          H       0.11085   0.65943   0.96997   0.06777
H          H       0.89125   0.65880   0.02361   0.06594
H          H       0.38785   0.83849   0.00726   0.06760
H          H       0.60784   0.83022   0.98400   0.06664
H          H       0.88671   0.33892   0.01879   0.06865
H          H       0.10918   0.33456   0.98857   0.06817
H          H       0.50189   0.89697   0.00228   0.09878
H          H       0.99882   0.39693   0.01017   0.09773
H          H       0.49989   0.10856   0.00492   0.09960
H          H       0.00142   0.60837   0.99527   0.10020
H          H       0.49930   0.89064   0.50446   0.10265
H          H       0.99841   0.39188   0.50945   0.10227
H          H       0.50012   0.10216   0.50395   0.09977
H          H       0.00128   0.60339   0.49656   0.10039
C          C       0.52607   0.93744   0.06867   0.03009
C          C       0.47697   0.93681   0.92849   0.02438
C          C       0.02405   0.43676   0.07671   0.02802
C          C       0.97500   0.43727   0.93590   0.02728
C          C       0.47602   0.06813   0.92914   0.02506
C          C       0.52465   0.06851   0.07449   0.02684
C          C       0.97673   0.56830   0.92381   0.02774
C          C       0.02546   0.56801   0.06806   0.02623
C          C       0.52529   0.97008   0.07760   0.03261
C          C       0.47741   0.96950   0.91785   0.03370
C          C       0.02404   0.46951   0.08273   0.03277
C          C       0.97607   0.46983   0.92347   0.03271
C          C       0.47684   0.03544   0.91932   0.03289
C          C       0.52460   0.03582   0.08036   0.03181
C          C       0.97690   0.53558   0.91807   0.03244
C          C       0.02480   0.53537   0.07760   0.03298
C          C       0.54719   0.98744   0.17027  -0.13140
C          C       0.45561   0.98655   0.82299  -0.13295
C          C       0.04632   0.48674   0.17308  -0.13146
C          C       0.95443   0.48702   0.82823  -0.13190
C          C       0.45528   0.01796   0.82420  -0.13362
C          C       0.54685   0.01883   0.17181  -0.13278
C          C       0.95480   0.51839   0.82594  -0.13330
C          C       0.04672   0.51814   0.17046  -0.13183
C          C       0.45171   0.91823   0.86745   0.06722
C          C       0.55178   0.91942   0.12743   0.06503
C          C       0.94942   0.41922   0.87602   0.06498
C          C       0.04907   0.41786   0.13783   0.06519
C          C       0.54980   0.08683   0.13885   0.06423
C          C       0.45075   0.08626   0.86450   0.06494
C          C       0.05078   0.58616   0.13144   0.06549
C          C       0.95166   0.58671   0.85873   0.06309
C          C       0.54913   0.89240   0.22117  -0.12628
C          C       0.45499   0.88943   0.78820  -0.12313
C          C       0.04538   0.39005   0.22324  -0.12371
C          C       0.95232   0.39075   0.79318  -0.12064
C          C       0.45397   0.11384   0.77627  -0.12306
C          C       0.54669   0.11399   0.23382  -0.12384
C          C       0.95511   0.61414   0.76951  -0.12227
C          C       0.04764   0.61351   0.22459  -0.12521
C          C       0.57281   0.87445   0.27280  -0.17017
C          C       0.43155   0.87124   0.73420  -0.17317
C          C       0.06848   0.37120   0.27481  -0.17233
C          C       0.92863   0.37284   0.74138  -0.17393
C          C       0.43049   0.13187   0.72107  -0.17707
C          C       0.57019   0.13200   0.28866  -0.17480
C          C       0.93182   0.63247   0.71469  -0.17555
C          C       0.07111   0.63161   0.27847  -0.17277
C          C       0.60063   0.88243   0.23014   0.19426
C          C       0.40325   0.88102   0.75782   0.19906
C          C       0.09678   0.37933   0.24263   0.19644
C          C       0.90055   0.38257   0.77080   0.19795
C          C       0.40232   0.12302   0.75217   0.19812
C          C       0.59822   0.12351   0.25053   0.19521
C          C       0.90357   0.62407   0.74658   0.19737
C          C       0.09915   0.62309   0.24080   0.19472
C          C       0.60332   0.90917   0.13431  -0.14686
C          C       0.39987   0.90924   0.84236  -0.15105
C          C       0.10049   0.40656   0.15272  -0.15010
C          C       0.89757   0.41059   0.85780  -0.15171
C          C       0.39905   0.09588   0.84364  -0.15440
C          C       0.60133   0.09676   0.15251  -0.15199
C          C       0.90005   0.59705   0.83874  -0.15440
C          C       0.10234   0.59605   0.14526  -0.15152
C          C       0.57955   0.92735   0.08495  -0.12411
C          C       0.42342   0.92740   0.89508  -0.12398
C          C       0.07731   0.42546   0.10259  -0.12415
C          C       0.92138   0.42852   0.90824  -0.12340
C          C       0.42264   0.07793   0.89824  -0.11945
C          C       0.57773   0.07890   0.09769  -0.11912
C          C       0.92347   0.57887   0.89365  -0.11965
C          C       0.07874   0.57802   0.09191  -0.12007
C          C       0.67616   0.17493   0.39106  -0.09417
C          C       0.32450   0.17458   0.61213  -0.09758
C          C       0.17621   0.67649   0.37442  -0.09456
C          C       0.82654   0.67726   0.60564  -0.09594
C          C       0.32558   0.82914   0.61712  -0.09426
C          C       0.67877   0.82959   0.36325  -0.09460
C          C       0.82360   0.32898   0.63513  -0.09133
C          C       0.17382   0.32633   0.37982  -0.09508
C          C       0.70006   0.19201   0.45044  -0.13446
C          C       0.30057   0.19186   0.55531  -0.13028
C          C       0.19978   0.69426   0.43145  -0.13358
C          C       0.80307   0.69506   0.54711  -0.13350
C          C       0.30195   0.81103   0.56490  -0.13495
C          C       0.70233   0.81192   0.42184  -0.13283
C          C       0.80042   0.31029   0.58264  -0.13721
C          C       0.19737   0.30807   0.43168  -0.13623
C          C       0.69756   0.21507   0.57390   0.07486
C          C       0.30292   0.21496   0.43435   0.07238
C          C       0.19700   0.71741   0.55409   0.07444
C          C       0.80605   0.71776   0.42482   0.07411
C          C       0.30441   0.78716   0.44600   0.07777
C          C       0.69906   0.78768   0.53518   0.07598
C          C       0.80357   0.28641   0.46478   0.07757
C          C       0.19476   0.28434   0.54880   0.07570
C          C       0.66993   0.22332   0.61910  -0.13160
C          C       0.33049   0.22280   0.38814  -0.12722
C          C       0.16930   0.72507   0.60025  -0.13096
C          C       0.83374   0.72469   0.37767  -0.12901
C          C       0.33199   0.77960   0.39717  -0.13321
C          C       0.67107   0.77918   0.56996  -0.13081
C          C       0.83131   0.27944   0.41671  -0.13365
C          C       0.16708   0.27704   0.59563  -0.13102
C          C       0.64612   0.20618   0.56065  -0.12505
C          C       0.35436   0.20550   0.44428  -0.12661
C          C       0.14579   0.70725   0.54416  -0.12663
C          C       0.85718   0.70691   0.43568  -0.12397
C          C       0.35553   0.79785   0.44788  -0.12240
C          C       0.64756   0.79682   0.51174  -0.12066
C          C       0.85440   0.29826   0.46767  -0.12325
C          C       0.14362   0.29543   0.54520  -0.12478
C          C       0.64898   0.18085   0.45167   0.05180
C          C       0.35167   0.18035   0.55206   0.05147
C          C       0.14905   0.68175   0.43676   0.05153
C          C       0.85385   0.68214   0.54528   0.05252
C          C       0.35265   0.82361   0.55410   0.04814
C          C       0.65107   0.82315   0.41382   0.05213
C          C       0.85079   0.32402   0.57273   0.04711
C          C       0.14669   0.32108   0.44135   0.05118
C          C       0.72296   0.22876   0.67332   0.04301
C          C       0.27736   0.22889   0.33757   0.04183
C          C       0.22229   0.73143   0.65281   0.04152
C          C       0.78066   0.73207   0.32895   0.04225
C          C       0.27879   0.77189   0.35630   0.03787
C          C       0.72409   0.77245   0.62980   0.03963
C          C       0.77840   0.27046   0.37497   0.03775
C          C       0.22035   0.26907   0.63810   0.03792
C          C       0.74357   0.24404   0.57884  -0.08635
C          C       0.25656   0.24394   0.43404  -0.08918
C          C       0.24302   0.74649   0.55825  -0.08887
C          C       0.76051   0.74776   0.42659  -0.08936
C          C       0.25884   0.75721   0.45785  -0.08368
C          C       0.74496   0.75857   0.52957  -0.08176
C          C       0.75890   0.25510   0.47671  -0.08503
C          C       0.24057   0.25452   0.53545  -0.08158
C          C       0.62372   0.16219   0.40593   0.07515
C          C       0.37689   0.16146   0.59668   0.07641
C          C       0.12425   0.66221   0.39440   0.07371
C          C       0.87870   0.66279   0.59080   0.07398
C          C       0.37774   0.84283   0.59719   0.07375
C          C       0.62581   0.84182   0.36777   0.06724
C          C       0.87538   0.34391   0.61464   0.07356
C          C       0.12176   0.34059   0.39925   0.07363
C          C       0.52401   0.93075   0.57574   0.02627
C          C       0.47588   0.93121   0.42801   0.02735
C          C       0.02336   0.43196   0.57854   0.02622
C          C       0.97492   0.43254   0.43442   0.02576
C          C       0.47591   0.06184   0.43274   0.02548
C          C       0.52492   0.06192   0.56983   0.02463
C          C       0.97648   0.56325   0.42889   0.02750
C          C       0.02540   0.56293   0.56678   0.02549
C          C       0.52412   0.96345   0.58110   0.03027
C          C       0.47670   0.96374   0.41772   0.02994
C          C       0.02350   0.46465   0.58446   0.03055
C          C       0.97591   0.46508   0.42279   0.03016
C          C       0.47669   0.02926   0.41938   0.03385
C          C       0.52457   0.02928   0.57824   0.03365
C          C       0.97671   0.53063   0.41945   0.03195
C          C       0.02456   0.53035   0.57822   0.03218
C          C       0.54617   0.98070   0.67366  -0.13285
C          C       0.45488   0.98083   0.32318  -0.13319
C          C       0.04567   0.48178   0.67666  -0.13269
C          C       0.95423   0.48226   0.32765  -0.13323
C          C       0.45483   0.01220   0.32426  -0.13501
C          C       0.54646   0.01211   0.67168  -0.13513
C          C       0.95459   0.51362   0.32628  -0.13444
C          C       0.04622   0.51315   0.67319  -0.13470
C          C       0.45015   0.91400   0.36482   0.06415
C          C       0.54888   0.91238   0.64109   0.06401
C          C       0.94914   0.41520   0.37287   0.06383
C          C       0.04857   0.41380   0.64097   0.06521
C          C       0.55033   0.08012   0.62843   0.06625
C          C       0.45010   0.07969   0.37686   0.06548
C          C       0.05098   0.58088   0.62484   0.06495
C          C       0.95097   0.58133   0.37123   0.06643
C          C       0.54555   0.88522   0.73280  -0.12791
C          C       0.45183   0.88767   0.26181  -0.12506
C          C       0.04603   0.38699   0.73665  -0.12511
C          C       0.95092   0.38828   0.27455  -0.12627
C          C       0.45209   0.10709   0.28572  -0.12581
C          C       0.54773   0.10772   0.72017  -0.12519
C          C       0.95336   0.60847   0.27836  -0.12583
C          C       0.04851   0.60887   0.71311  -0.12464
C          C       0.56904   0.86746   0.79083  -0.17174
C          C       0.42726   0.87179   0.20247  -0.17310
C          C       0.07001   0.36985   0.79335  -0.17148
C          C       0.92646   0.37203   0.21697  -0.17162
C          C       0.42780   0.12387   0.23093  -0.17012
C          C       0.57164   0.12507   0.77480  -0.16977
C          C       0.92928   0.62551   0.22313  -0.17157
C          C       0.07253   0.62614   0.76637  -0.17095
C          C       0.59703   0.87632   0.75668   0.19961
C          C       0.40002   0.88180   0.24645   0.19751
C          C       0.09769   0.37904   0.75496   0.19737
C          C       0.89912   0.38214   0.25865   0.19796
C          C       0.40032   0.11407   0.26944   0.19857
C          C       0.59931   0.11559   0.73575   0.19740
C          C       0.90170   0.61613   0.26230   0.19830
C          C       0.10018   0.61611   0.73050   0.19809
C          C       0.60029   0.90272   0.65892  -0.15240
C          C       0.39845   0.90741   0.35467  -0.15444
C          C       0.10014   0.40505   0.65315  -0.15269
C          C       0.89742   0.40833   0.36272  -0.15193
C          C       0.39838   0.08753   0.36778  -0.15183
C          C       0.60181   0.08891   0.63632  -0.14809
C          C       0.89938   0.58983   0.36206  -0.15211
C          C       0.10261   0.58890   0.63552  -0.15024
C          C       0.57679   0.92044   0.60280  -0.12070
C          C       0.42299   0.92333   0.41201  -0.12120
C          C       0.07615   0.42211   0.59767  -0.12214
C          C       0.92186   0.42466   0.41778  -0.12190
C          C       0.42267   0.07047   0.41878  -0.12405
C          C       0.57792   0.07131   0.58567  -0.12666
C          C       0.92347   0.57261   0.41419  -0.12400
C          C       0.07859   0.57144   0.58549  -0.12557
C          C       0.67922   0.15546   0.85593  -0.10364
C          C       0.31987   0.15446   0.14994  -0.09828
C          C       0.17973   0.65745   0.84260  -0.10012
C          C       0.82172   0.65647   0.14089  -0.09990
C          C       0.31934   0.84372   0.13842  -0.10001
C          C       0.67706   0.83889   0.86949  -0.10075
C          C       0.81853   0.34282   0.15634  -0.10200
C          C       0.17810   0.34022   0.86371  -0.09850
C          C       0.70329   0.17363   0.84858  -0.12928
C          C       0.29601   0.17319   0.15760  -0.13159
C          C       0.20340   0.67608   0.83175  -0.13181
C          C       0.79794   0.67529   0.14990  -0.13190
C          C       0.29569   0.82551   0.15804  -0.13342
C          C       0.70184   0.82245   0.84621  -0.13267
C          C       0.79502   0.32440   0.17649  -0.13042
C          C       0.20217   0.32240   0.84306  -0.13496
C          C       0.70364   0.20383   0.91475   0.06925
C          C       0.29609   0.20333   0.09365   0.06759
C          C       0.20333   0.70643   0.89547   0.07273
C          C       0.79806   0.70536   0.08529   0.06937
C          C       0.29532   0.79471   0.10105   0.07273
C          C       0.70360   0.79106   0.88755   0.07332
C          C       0.79478   0.29360   0.11947   0.07039
C          C       0.20301   0.29150   0.89515   0.07354
C          C       0.68188   0.21302   0.01691  -0.13515
C          C       0.31803   0.21185   0.99247  -0.13468
C          C       0.18157   0.71552  -0.00220  -0.13895
C          C       0.81984   0.71384   0.98303  -0.13616
C          C       0.31613   0.78467   0.99458  -0.13477
C          C       0.68256   0.77836   0.98268  -0.13587
C          C       0.81558   0.28384   0.01213  -0.13276
C          C       0.18214   0.28107  -0.00133  -0.13685
C          C       0.65762   0.19460   0.02515  -0.12077
C          C       0.34209   0.19290   0.98415  -0.11921
C          C       0.15767   0.69668   0.00928  -0.11954
C          C       0.84391   0.69495   0.97458  -0.11950
C          C       0.33999   0.80308   0.97441  -0.12267
C          C       0.65752   0.79500   0.00632  -0.12380
C          C       0.83928   0.30246   0.99123  -0.12100
C          C       0.15784   0.29908   0.01993  -0.12361
C          C       0.65507   0.16680   0.93315   0.05673
C          C       0.34426   0.16521   0.07475   0.05472
C          C       0.15556   0.66850   0.92065   0.05582
C          C       0.84607   0.66729   0.06536   0.05712
C          C       0.34291   0.83163   0.05856   0.05764
C          C       0.65354   0.82447   0.93661   0.05703
C          C       0.84214   0.33101   0.07570   0.05819
C          C       0.15445   0.32769   0.93914   0.05769
C          C       0.72422   0.22580   0.84742   0.04199
C          C       0.27578   0.22581   0.16303   0.04271
C          C       0.22369   0.72852   0.82694   0.04190
C          C       0.77829   0.72830   0.15504   0.04225
C          C       0.27599   0.77313   0.18141   0.04366
C          C       0.72510   0.77199   0.80458   0.04428
C          C       0.77572   0.27172   0.20015   0.04410
C          C       0.22290   0.27026   0.81317   0.04475
C          C       0.74315   0.24190   0.96724  -0.08280
C          C       0.25657   0.24173   0.04461  -0.08179
C          C       0.24286   0.74434   0.94691  -0.08167
C          C       0.75895   0.74410   0.03720  -0.08104
C          C       0.25647   0.75623   0.06832  -0.08546
C          C       0.74503   0.75559   0.91649  -0.08624
C          C       0.75660   0.25426   0.08767  -0.08529
C          C       0.24267   0.25353   0.92480  -0.08628
C          C       0.62761   0.15115   0.90283   0.07003
C          C       0.37166   0.14936   0.10538   0.06955
C          C       0.12838   0.65224   0.89356   0.06911
C          C       0.87347   0.65153   0.09675   0.07098
C          C       0.37058   0.84690   0.08222   0.07171
C          C       0.62540   0.83923   0.91417   0.07334
C          C       0.86965   0.34678   0.09686   0.07087
C          C       0.12658   0.34296   0.91548   0.07045
C          C       0.50116   0.98621  -0.00162   0.00616
C          C       0.00026   0.48607   0.00189   0.00711
C          C       0.50086   0.01921  -0.00063   0.00683
C          C       0.00066   0.51905  -0.00081   0.00609
C          C       0.50158   0.92194   0.00043  -0.18294
C          C       0.99924   0.42188   0.00800  -0.18488
C          C       0.50014   0.08356   0.00331  -0.18756
C          C       0.00122   0.58339   0.99561  -0.18913
C          C       0.50058   0.97998   0.49847   0.00612
C          C      -0.00001   0.48124   0.50206   0.00654
C          C       0.50068   0.01289   0.49813   0.00464
C          C       0.00046   0.51412   0.49955   0.00571
C          C       0.49968   0.91562   0.50288  -0.18959
C          C       0.99885   0.41688   0.50788  -0.18803
C          C       0.50032   0.07718   0.50229  -0.18354
C          C       0.00106   0.57840   0.49727  -0.18545
N          N       0.62350   0.14006   0.29547  -0.30475
N          N       0.37709   0.13977   0.70759  -0.30498
N          N       0.12422   0.64020   0.28317  -0.30289
N          N       0.87854   0.64114   0.70179  -0.30538
N          N       0.37811   0.86433   0.71170  -0.30410
N          N       0.62614   0.86597   0.27345  -0.30194
N          N       0.87537   0.36576   0.72695  -0.30390
N          N       0.12166   0.36200   0.28655  -0.30416
N          N       0.62503   0.13051   0.78391  -0.30127
N          N       0.37431   0.12870   0.22220  -0.30212
N          N       0.12588   0.63126   0.77650  -0.30054
N          N       0.87587   0.63090   0.21372  -0.30255
N          N       0.37377   0.86800   0.19808  -0.30331
N          N       0.62254   0.86107   0.80462  -0.30297
N          N       0.87300   0.36779   0.21315  -0.30292
N          N       0.12355   0.36427   0.80256  -0.30291

