data_empty_box_PM
_symmetry_space_group_name_H-M    'P1'
_cell_length_a    100.000000
_cell_length_b    100.000000
_cell_length_c    100.000000
_cell_angle_alpha    90.000000
_cell_angle_beta    90.000000
_cell_angle_gamma    90.000000
_symmetry_Int_Tables_number 1

loop_
_symmetry_equiv_pos_as_xyz
'x,y,z'

loop_
_atom_site_label
_atom_site_type_symbol
_atom_site_fract_x
_atom_site_fract_y
_atom_site_fract_z
ig1    ig    0.000000    0.000000    0.000000
