data_crystal

_audit_creation_method 'AiiDA-DDEC plugin'

_cell_length_a        29.38236
_cell_length_b        30.55268
_cell_length_c         8.98758

_cell_angle_alpha     64.00170
_cell_angle_beta     69.91314
_cell_angle_gamma     60.56814

_symmetry_space_group_name_Hall 'P 1'
_symmetry_space_group_name_H-M  'P 1'

loop_
_symmetry_equiv_pos_as_xyz
 'x,y,z'

loop_
_atom_site_label
_atom_site_type_symbol
_atom_site_fract_x
_atom_site_fract_y
_atom_site_fract_z
_atom_site_charge
H          H       0.35909   0.68492   0.51569   0.12949
H          H       0.37328   0.58196   0.82128   0.07389
H          H       0.61563   0.34950   0.64369   0.12654
H          H       0.67389   0.40290   0.69166   0.08680
H          H       0.66030   0.31757   0.78934   0.12619
H          H       0.62953   0.43362   0.54853   0.07391
H          H       0.39738   0.66115   0.67175   0.12131
H          H       0.33041   0.60721   0.67801   0.08647
H          H       0.68340   0.33799   0.56971   0.13352
H          H       0.51687   0.40454   0.80772   0.12712
H          H       0.53143   0.59588   0.75089   0.26896
H          H       0.55398   0.66908   0.68070   0.11728
H          H       0.32764   0.68363   0.72338   0.13148
H          H       0.48695   0.59406   0.58848   0.12321
H          H       0.46653   0.41246   0.63115   0.24882
H          H       0.45479   0.34358   0.63744   0.09336
H          H       0.01047   0.31125   0.66056   0.13135
H          H       0.04932   0.34512   0.85404   0.06304
H          H       0.00158   0.66921   0.59144   0.12931
H          H       0.90881   0.63498   0.73323   0.07094
H          H       0.96321   0.66429   0.79574   0.13052
H          H       0.94881   0.63460   0.53286   0.06165
H          H       0.98205   0.31576   0.86475   0.12964
H          H       0.08420   0.33266   0.66210   0.07659
H          H       0.93267   0.71109   0.61692   0.13319
H          H       0.07209   0.50219   0.70651   0.12948
H          H       0.86814   0.58304   0.90020   0.27142
H          H       0.78332   0.56212   0.78396   0.11929
H          H       0.04621   0.26594   0.82913   0.13099
H          H       0.92726   0.47696   0.65033   0.13865
H          H       0.13125   0.41931   0.82308   0.28283
H          H       0.21812   0.42306   0.74685   0.12194
H          H       0.66138   0.04752   0.53542   0.12289
H          H       0.56918   0.07489   0.82240   0.08018
H          H       0.33612   0.98529   0.63811   0.11807
H          H       0.42336   0.91714   0.86008   0.08836
H          H       0.32864   0.97985   0.84886   0.12617
H          H       0.43303   0.91939   0.65114   0.07165
H          H       0.66838   0.02172   0.75029   0.13553
H          H       0.56386   0.09594   0.60818   0.06585
H          H       0.34157   0.92348   0.80089   0.13345
H          H       0.41206   0.07337   0.67534   0.12903
H          H       0.56815   0.89528   0.51836   0.26136
H          H       0.65561   0.79867   0.67006   0.10189
H          H       0.64910   0.09105   0.63970   0.13135
H          H       0.59008   0.93169   0.73763   0.12308
H          H       0.45750   0.14112   0.46508   0.27300
H          H       0.35423   0.22067   0.57996   0.11250
H          H       0.34965   0.66753   0.02897   0.12422
H          H       0.37893   0.56246   0.32653   0.07877
H          H       0.67885   0.32822   0.09122   0.13402
H          H       0.68582   0.38980   0.19447   0.08615
H          H       0.60980   0.35206   0.16275   0.12947
H          H       0.64245   0.42611   0.04482   0.07732
H          H       0.38815   0.64985   0.17806   0.12549
H          H       0.33684   0.58062   0.18967   0.08390
H          H       0.65483   0.31511   0.30957   0.12561
H          H       0.52939   0.39678   0.31715   0.12939
H          H       0.54089   0.57479   0.29356   0.26184
H          H       0.55274   0.66509   0.17849   0.11481
H          H       0.31963   0.66243   0.24130   0.13450
H          H       0.49155   0.58946   0.05988   0.12171
H          H       0.46884   0.42766   0.05051   0.24741
H          H       0.45811   0.33068   0.17630   0.11370
H          H       0.99095   0.33230   0.37193   0.13108
H          H       0.06101   0.36309   0.32451   0.07156
H          H       0.00215   0.67442   0.11895   0.13557
H          H       0.90346   0.64812   0.28038   0.07209
H          H       0.96432   0.67676   0.31773   0.12843
H          H       0.93715   0.65133   0.07028   0.06571
H          H       0.05420   0.28144   0.33300   0.13196
H          H       0.09033   0.34866   0.13410   0.07245
H          H       0.93570   0.72337   0.13523   0.13658
H          H       0.06817   0.51723   0.22600   0.12876
H          H       0.86130   0.57796   0.39515   0.29021
H          H       0.78260   0.56613   0.25431   0.11661
H          H       0.01460   0.32387   0.17251   0.13187
H          H       0.92966   0.49265   0.12358   0.13418
H          H       0.12784   0.41613   0.35168   0.26326
H          H       0.22093   0.43827   0.21823   0.11554
H          H       0.66666   0.01696   0.15867   0.13277
H          H       0.57157   0.99405   0.40746   0.05433
H          H       0.33570   0.94857   0.21987   0.13784
H          H       0.35513   0.01874   0.33246   0.05947
H          H       0.31174   0.01919   0.13110   0.13231
H          H       0.38092   0.94810   0.41586   0.07036
H          H       0.66385   0.95301   0.25381   0.12846
H          H       0.57575   0.05641   0.32327   0.07329
H          H       0.28883   0.98878   0.34564   0.12763
H          H       0.39812   0.07029   0.18717   0.12691
H          H       0.55930   0.89684  -0.00164   0.24598
H          H       0.64921   0.80163   0.14171   0.10833
H          H       0.66576   0.98437   0.37845   0.12971
H          H       0.58513   0.93933   0.15233   0.12756
H          H       0.43673   0.14822   0.99464   0.28534
H          H       0.33891   0.22245   0.13582   0.11472
H          H       0.64883   0.56277   0.19464   0.27598
H          H       0.78488   0.66499   0.23633   0.26759
H          H       0.54711   0.80220   0.14776   0.27791
H          H       0.20770   0.35533   0.16507   0.26356
H          H       0.44707   0.20437   0.14941   0.26444
H          H       0.36396   0.43386   0.17407   0.27260
H          H       0.55383   0.77849   0.68008   0.31233
H          H       0.79030   0.65984   0.75273   0.26831
H          H       0.64457   0.56254   0.71284   0.28338
H          H       0.33127   0.42470   0.74867   0.32241
H          H       0.45928   0.21348   0.57710   0.26443
H          H       0.21001   0.34998   0.62773   0.27141
C          C       0.45383   0.53947   0.64548   0.23054
C          C       0.49439   0.55202   0.63944  -0.22872
C          C       0.58576   0.52685   0.68737   0.43900
C          C       0.54300   0.51291   0.69223  -0.12382
C          C       0.59439   0.63991   0.69547   0.06947
C          C       0.63987   0.40260   0.66849   0.08140
C          C       0.64995   0.34878   0.66932  -0.42082
C          C       0.55074   0.45886   0.74919   0.23931
C          C       0.50940   0.44656   0.75994  -0.24195
C          C       0.41555   0.47070   0.74157   0.43779
C          C       0.46062   0.48561   0.71096  -0.10179
C          C       0.41252   0.36503   0.67694   0.06240
C          C       0.36648   0.60630   0.69208   0.08212
C          C       0.36283   0.66187   0.64793  -0.42023
C          C       0.00892   0.44072   0.66708   0.21833
C          C       0.95873   0.48227   0.66810  -0.20673
C          C       0.89161   0.56939   0.67112   0.47607
C          C       0.94738   0.52945   0.69050  -0.11772
C          C       0.77045   0.60386   0.76633   0.11096
C          C       0.94827   0.63034   0.66085   0.05589
C          C       0.96270   0.67091   0.66581  -0.40350
C          C       0.98918   0.53541   0.71211   0.21716
C          C       0.03999   0.49471   0.70383  -0.19661
C          C       0.10790   0.41211   0.64299   0.44135
C          C       0.05161   0.44775   0.67935  -0.12871
C          C       0.23241   0.39016   0.70099   0.09139
C          C       0.04491   0.34442   0.73871   0.07200
C          C       0.01915   0.30741   0.77595  -0.41724
C          C       0.54120   0.01208   0.72791   0.21829
C          C       0.54993   0.96217   0.73149  -0.25138
C          C       0.52493   0.89237   0.75517   0.44972
C          C       0.51075   0.95041   0.72120  -0.12709
C          C       0.62719   0.78494   0.67260   0.09748
C          C       0.40948   0.94186   0.73929   0.06519
C          C       0.35047   0.95859   0.75759  -0.41256
C          C       0.45988   0.99197   0.70015   0.21848
C          C       0.45144   0.04207   0.69245  -0.18609
C          C       0.47179   0.10789   0.71248   0.47098
C          C       0.49002   0.05311   0.70917  -0.12247
C          C       0.38273   0.23296   0.58479   0.10340
C          C       0.58698   0.06421   0.70750   0.08010
C          C       0.64493   0.05545   0.65488  -0.41099
C          C       0.68558   0.61887   0.71991   0.36161
C          C       0.63003   0.65561   0.70685  -0.22718
C          C       0.61121   0.70969   0.69868   0.31830
C          C       0.64603   0.73019   0.69169  -0.24583
C          C       0.70142   0.69544   0.70946   0.35877
C          C       0.71972   0.63950   0.73099  -0.25211
C          C       0.32233   0.37453   0.69782   0.32547
C          C       0.37760   0.34606   0.67056  -0.24145
C          C       0.40023   0.29780   0.62723   0.35236
C          C       0.36410   0.28148   0.60777  -0.25748
C          C       0.30702   0.31329   0.62198   0.35952
C          C       0.28649   0.35963   0.67396  -0.22369
C          C       0.46101   0.53049   0.13869   0.22252
C          C       0.49999   0.54721   0.11753  -0.22583
C          C       0.59105   0.52860   0.14144   0.44878
C          C       0.54939   0.51044   0.16683  -0.12197
C          C       0.59385   0.63718   0.18760   0.07525
C          C       0.64867   0.39615   0.16932   0.08264
C          C       0.64761   0.34502   0.18538  -0.42719
C          C       0.56017   0.45569   0.23921   0.23127
C          C       0.52094   0.43905   0.26134  -0.21976
C          C       0.42911   0.45806   0.24406   0.45729
C          C       0.47162   0.47594   0.21280  -0.11504
C          C       0.41698   0.35961   0.17514   0.09056
C          C       0.36916   0.58682   0.20016   0.08342
C          C       0.35604   0.64506   0.15965  -0.41816
C          C       0.01052   0.45728   0.15218   0.22745
C          C       0.95978   0.49794   0.14999  -0.21648
C          C       0.89207   0.58566   0.14553   0.47322
C          C       0.94682   0.54471   0.17834  -0.11496
C          C       0.76807   0.60787   0.24102   0.10225
C          C       0.94174   0.64394   0.19649   0.07385
C          C       0.96214   0.68186   0.19137  -0.41910
C          C       0.98603   0.55008   0.21735   0.21300
C          C       0.03744   0.51032   0.21103  -0.19506
C          C       0.10784   0.43260   0.12833   0.47186
C          C       0.05111   0.46512   0.17343  -0.13402
C          C       0.23185   0.40180   0.19570   0.10281
C          C       0.05268   0.36103   0.21824   0.07456
C          C       0.02651   0.32255   0.27781  -0.41794
C          C       0.53179   0.01650   0.17337   0.21976
C          C       0.54390   0.96684   0.16935  -0.22497
C          C       0.51528   0.89491   0.23230   0.47030
C          C       0.50335   0.95226   0.18779  -0.11495
C          C       0.62232   0.78508   0.15309   0.10126
C          C       0.36779   0.98268   0.30364   0.07895
C          C       0.32354   0.98507   0.24554  -0.41136
C          C       0.45086   0.99060   0.18467   0.22421
C          C       0.43872   0.04052   0.18717  -0.20553
C          C       0.46478   0.10225   0.21816   0.47999
C          C       0.47851   0.05238   0.19092  -0.09798
C          C       0.36954   0.23109   0.14458   0.09526
C          C       0.59020   0.01882   0.30064   0.07875
C          C       0.65031   0.99124   0.27128  -0.41980
C          C       0.68392   0.62026   0.20115   0.36357
C          C       0.62832   0.65493   0.19176  -0.25593
C          C       0.60545   0.71031   0.18283   0.35415
C          C       0.64126   0.73138   0.17557  -0.25511
C          C       0.69664   0.69785   0.19698   0.36367
C          C       0.71661   0.64218   0.21269  -0.25574
C          C       0.32343   0.38293   0.18231   0.35946
C          C       0.37860   0.34524   0.17742  -0.25386
C          C       0.39544   0.29210   0.17446   0.35734
C          C       0.35551   0.27910   0.16317  -0.25838
C          C       0.29972   0.31586   0.16545   0.36628
C          C       0.28454   0.36671   0.18075  -0.24347
N          N       0.56837   0.57809   0.69129  -0.26809
N          N       0.60607   0.59109   0.70190  -0.07139
N          N       0.43057   0.42566   0.70415  -0.23857
N          N       0.39444   0.40677   0.72270  -0.13681
N          N       0.85598   0.58241   0.80614  -0.26467
N          N       0.80401   0.61834   0.78442  -0.10967
N          N       0.14302   0.41064   0.71212  -0.24649
N          N       0.19630   0.38110   0.67354  -0.07372
N          N       0.56430   0.87057   0.63897  -0.27921
N          N       0.57764   0.81732   0.65789  -0.17265
N          N       0.45087   0.14837   0.57441  -0.27572
N          N       0.43406   0.20036   0.56650  -0.08791
N          N       0.57223   0.57108   0.19738  -0.26566
N          N       0.60863   0.58760   0.19507  -0.09097
N          N       0.44320   0.42324   0.16164  -0.26523
N          N       0.40477   0.40833   0.16999  -0.08960
N          N       0.85247   0.58857   0.27943  -0.27500
N          N       0.80090   0.62391   0.25491  -0.10098
N          N       0.14128   0.42324   0.22224  -0.26614
N          N       0.19410   0.39191   0.18304  -0.09542
N          N       0.55557   0.87189   0.11969  -0.27218
N          N       0.57186   0.81874   0.14146  -0.08707
N          N       0.43212   0.14755   0.11506  -0.26903
N          N       0.41944   0.19493   0.13489  -0.09739
O          O       0.59607   0.41738   0.80330  -0.24864
O          O       0.63324   0.49779   0.67512  -0.42583
O          O       0.40947   0.57924   0.57782  -0.25552
O          O       0.37020   0.49486   0.80490  -0.44185
O          O       0.98684   0.57783   0.73536  -0.20669
O          O       0.87655   0.58587   0.53521  -0.49510
O          O       0.01107   0.39768   0.64754  -0.21663
O          O       0.12424   0.38577   0.54581  -0.49757
O          O       0.41705   0.99112   0.67525  -0.21853
O          O       0.50644   0.86531   0.88694  -0.45857
O          O       0.58541   0.01413   0.73833  -0.20888
O          O       0.47294   0.11710   0.83209  -0.50453
O          O       0.70218   0.57204   0.72133  -0.45696
O          O       0.55978   0.74020   0.69473  -0.39791
O          O       0.73240   0.71359   0.70786  -0.47045
O          O       0.30103   0.41813   0.74100  -0.39648
O          O       0.44994   0.27020   0.60990  -0.48363
O          O       0.27635   0.30081   0.59309  -0.47659
O          O       0.60732   0.41935   0.29489  -0.25840
O          O       0.63695   0.50968   0.07366  -0.43098
O          O       0.41465   0.56640   0.07693  -0.26106
O          O       0.38684   0.47112   0.33857  -0.43569
O          O       0.98075   0.59042   0.26037  -0.21769
O          O       0.88297   0.61118  -0.00084  -0.49106
O          O       0.01685   0.41335   0.12775  -0.21901
O          O       0.12528   0.41621   0.00650  -0.50543
O          O       0.41354   0.97844   0.17112  -0.22697
O          O       0.49442   0.87109   0.36645  -0.45118
O          O       0.57171   0.03148   0.14900  -0.24952
O          O       0.47984   0.10273   0.33019  -0.48053
O          O       0.70280   0.57314   0.20038  -0.47180
O          O       0.55637   0.73866   0.18040  -0.46769
O          O       0.72603   0.71644   0.20314  -0.47482
O          O       0.30914   0.42882   0.18780  -0.45996
O          O       0.44345   0.25878   0.17821  -0.49260
O          O       0.26617   0.30301   0.15369  -0.48253

